57

Au         0.0000000000        0.0000000000        0.0000000000 L3
Au         2.9200000000        0.0000000000        0.0000000000 L3
Au         5.8400000000        0.0000000000        0.0000000000 L3
Au         1.4600000000        2.5287941680        0.0000000000 L3
Au         4.3800000000        2.5287941680        0.0000000000 L3
Au         7.3000000000        2.5287941680        0.0000000000 L3
Au         2.9200000000        5.0575883360        0.0000000000 L3
Au         5.8400000000        5.0575883360        0.0000000000 L3
Au         8.7600000000        5.0575883360        0.0000000000 L3
Au         1.4600000000        0.8429312920        2.3841700720 L3
Au         4.3800000000        0.8429312920        2.3841700720 L3
Au         7.3000000000        0.8429312920        2.3841700720 L3
Au         2.9200000000        3.3717254600        2.3841700720 L3
Au         5.8400000000        3.3717254600        2.3841700720 L3
Au         8.7600000000        3.3717254600        2.3841700720 L3
Au         4.3800000000        5.9005196280        2.3841700720 L3
Au         7.3000000000        5.9005196280        2.3841700720 L3
Au        10.2200000000        5.9005196280        2.3841700720 L3
Au         0.0000000000        1.6858628760        4.7683401440 L3
Au         2.9200000000        1.6858628760        4.7683401440 L3
Au         5.8400000000        1.6858628760        4.7683401440 L3
Au         1.4600000000        4.2146570440        4.7683401440 L3
Au         4.3800000000        4.2146570440        4.7683401440 L3
Au         7.3000000000        4.2146570440        4.7683401440 L3
Au         2.9200000000        6.7434512120        4.7683401440 L3
Au         5.8400000000        6.7434512120        4.7683401440 L3
Au         8.7600000000        6.7434512120        4.7683401440 L3
C    4.270206525462673    3.637960552331978    8.81605796549577    S
C    4.1399864705464475    4.327043251638324    10.025147340403308    S
C    4.16151371017626    3.6309041541142375    11.237688755841258    S
C    4.3141229970179005    2.2283903229845867    11.252965796121233    S
C    4.423325439754773    2.248739761555118    8.819891065980341    S
C    4.445871068081424    1.5489132675619595    10.029849113124373    S
C    4.348778139367937    1.4168210367058773    12.53091131153954    S
N    4.179350910410807    2.2461126466272647    13.731672650191772    S
H    3.541367686398411    0.6507800517217882    12.49140770841082    S
H    5.33149342667779    0.8963540924149107    12.569800854966257    S
C    4.332276676661592    1.4437275857288911    14.951079971870513    S
H    3.204460826869073    2.6311502360089105    13.720102759303705    S
C    4.302150064367263    2.2682212728644355    16.22783528221988    S
H    5.307395959423365    0.9080060005651972    14.925717981099599    S
H    3.514830390598785    0.688412691603959    14.995212864537619    S
C    4.182891233319806    3.680818117674319    16.25967121396932    S
C    4.165156201762937    4.358514329483767    17.48348983605137    S
C    4.2659205255731765    3.65450946150847    18.684641921140575    S
C    4.406525621141308    1.575323975984071    17.451196132714937    S
C    4.387355298791678    2.264507792173853    18.666853922367558    S
F    4.5262441643588485    0.22279693037512005    17.467704333894737    S
F    4.0907159940184386    4.4233567705199075    15.128722817891942    S
H    4.022752666742571    5.403418042585921    10.028323935780667    S
H    4.061358786175974    4.1981523280403055    12.1528735745943    S
H    4.074109914805863    5.4375293847628745    17.4956969942937    S
H    4.467544348317162    1.7146369087031774    19.59615803338148    S
S    4.242589275557202    4.53300950170059    7.26652252368045    S
H    4.525505029953987    1.7089356754046863    7.886975621943735    S
H    4.565920223293232    0.47239606355748376    10.013880828453917    S
S    4.242589275557202    4.533009501700589    20.24385416427976    S
