84

Au    0.0000000000    0.0000000000    0.0000000000    L0
Au    2.9200000000    0.0000000000    0.0000000000    L0
Au    5.8400000000    0.0000000000    0.0000000000    L0
Au    1.4600000000    2.5287941680    0.0000000000    L0
Au    4.3800000000    2.5287941680    0.0000000000    L0
Au    7.3000000000    2.5287941680    0.0000000000    L0
Au    2.9200000000    5.0575883360    0.0000000000    L0
Au    5.8400000000    5.0575883360    0.0000000000    L0
Au    8.7600000000    5.0575883360    0.0000000000    L0
Au    1.4600000000    0.8429312920    2.3841700720    L0
Au    4.3800000000    0.8429312920    2.3841700720    L0
Au    7.3000000000    0.8429312920    2.3841700720    L0
Au    2.9200000000    3.3717254600    2.3841700720    L0
Au    5.8400000000    3.3717254600    2.3841700720    L0
Au    8.7600000000    3.3717254600    2.3841700720    L0
Au    4.3800000000    5.9005196280    2.3841700720    L0
Au    7.3000000000    5.9005196280    2.3841700720    L0
Au    10.2200000000    5.9005196280    2.3841700720    L0
Au    0.0000000000    1.6858628760    4.7683401440    L0
Au    2.9200000000    1.6858628760    4.7683401440    L0
Au    5.8400000000    1.6858628760    4.7683401440    L0
Au    1.4600000000    4.2146570440    4.7683401440    L0
Au    4.3800000000    4.2146570440    4.7683401440    L0
Au    7.3000000000    4.2146570440    4.7683401440    L0
Au    2.9200000000    6.7434512120    4.7683401440    L0
Au    5.8400000000    6.7434512120    4.7683401440    L0
Au    8.7600000000    6.7434512120    4.7683401440    L0
C    5.1874009809    3.4401961398    8.3207131479    S
C    6.0882308918    3.3756746022    9.4039186683    S
C    5.7265511012    2.7324867143    10.5864923304    S
C    4.4639425360    2.1331646749    10.7279233334    S
C    3.9399460199    2.8039824694    8.4371404328    S
C    3.5899641461    2.1692998034    9.6284107530    S
C    4.0438240047    1.4545344130    12.0155336864    S
N    4.5178235376    2.1616657111    13.2138225877    S
H    2.9397034121    1.3330873959    12.0011768416    S
H    4.4601080084    0.4304198127    12.0449973783    S
C    3.9242886602    1.6084377535    14.4394028338    S
H    4.2678783701    3.1516713574    13.1341024733    S
C    4.3460053923    2.2896896549    15.7183930310    S
H    4.2029114435    0.5467271582    14.5073312955    S
H    2.8097515523    1.6230706417    14.4012715544    S
C    4.4055676032    3.6889317960    15.8825922920    S
C    4.7803573947    4.3231175971    17.0471605988    S
C    5.1177706599    3.5483645406    18.1926492600    S
C    4.6533567422    1.5576885790    16.8879240668    S
C    5.0338910989    2.1325339333    18.0835743928    S
F    4.5628995984    0.1954139956    16.8491788409    S
F    4.0518803978    4.4847788959    14.8208506545    S
H    7.0648569944    3.8533907936    9.3196045586    S
H    6.4233658125    2.7068420240    11.4253006102    S
H    4.8077757470    5.4098103231    17.0926936056    S
H    5.2652001007    1.5014062228    18.9392549396    S
S    5.6146111908    4.5125589119    6.9711396381    S
H    3.2347322641    2.8379525764    7.6055388697    S
H    2.6052740746    1.7038687798    9.7093317629    S
S    5.5953054336    4.2984317494    19.6540767102    S
Au    8.7600000000    6.7434512120    22.0568762043    R0
Au    5.8400000000    6.7434512120    22.0568762043    R0
Au    2.9200000000    6.7434512120    22.0568762043    R0
Au    7.3000000000    4.2146570440    22.0568762043    R0
Au    4.3800000000    4.2146570440    22.0568762043    R0
Au    1.4600000000    4.2146570440    22.0568762043    R0
Au    5.8400000000    1.6858628760    22.0568762043    R0
Au    2.9200000000    1.6858628760    22.0568762043    R0
Au    0.0000000000    1.6858628760    22.0568762043    R0
Au    10.2200000000    5.9005196280    24.441046276300003    R0
Au    7.3000000000    5.9005196280    24.441046276300003    R0
Au    4.3800000000    5.9005196280    24.441046276300003    R0
Au    8.7600000000    3.3717254600    24.441046276300003    R0
Au    5.8400000000    3.3717254600    24.441046276300003    R0
Au    2.9200000000    3.3717254600    24.441046276300003    R0
Au    7.3000000000    0.8429312920    24.441046276300003    R0
Au    4.3800000000    0.8429312920    24.441046276300003    R0
Au    1.4600000000    0.8429312920    24.441046276300003    R0
Au    8.7600000000    5.0575883360    26.8252163483    R0
Au    5.8400000000    5.0575883360    26.8252163483    R0
Au    2.9200000000    5.0575883360    26.8252163483    R0
Au    7.3000000000    2.5287941680    26.8252163483    R0
Au    4.3800000000    2.5287941680    26.8252163483    R0
Au    1.4600000000    2.5287941680    26.8252163483    R0
Au    5.8400000000    0.0000000000    26.8252163483    R0
Au    2.9200000000    0.0000000000    26.8252163483    R0
Au    0.0000000000    0.0000000000    26.8252163483    R0
