360
XYZ file
Au    0.000000    0.000000    0.000000    L3
Au    8.760000    0.000000    0.000000    L3
Au    4.380000    7.586382    0.000000    L3
Au    13.140000    7.586382    0.000000    L3
Au    2.920000    0.000000    0.000000    L3
Au    11.680000    0.000000    0.000000    L3
Au    7.300000    7.586382    0.000000    L3
Au    16.059999    7.586382    0.000000    L3
Au    5.840000    0.000000    0.000000    L3
Au    14.600000    0.000000    0.000000    L3
Au    10.220000    7.586382    0.000000    L3
Au    18.980000    7.586382    0.000000    L3
Au    1.460000    2.528794    0.000000    L3
Au    10.220000    2.528794    0.000000    L3
Au    5.840000    10.115176    0.000000    L3
Au    14.600000    10.115176    0.000000    L3
Au    4.380000    2.528794    0.000000    L3
Au    13.140000    2.528794    0.000000    L3
Au    8.760000    10.115176    0.000000    L3
Au    17.520000    10.115176    0.000000    L3
Au    7.300000    2.528794    0.000000    L3
Au    16.059999    2.528794    0.000000    L3
Au    11.680000    10.115176    0.000000    L3
Au    20.440001    10.115176    0.000000    L3
Au    2.920000    5.057588    0.000000    L3
Au    11.680000    5.057588    0.000000    L3
Au    5.840000    5.057588    0.000000    L3
Au    14.600000    5.057588    0.000000    L3
Au    8.760000    5.057588    0.000000    L3
Au    17.520000    5.057588    0.000000    L3
Au    1.460000    0.842931    2.384170    L3
Au    10.220000    0.842931    2.384170    L3
Au    5.840000    8.429314    2.384170    L3
Au    14.600000    8.429314    2.384170    L3
Au    4.380000    0.842931    2.384170    L3
Au    13.140000    0.842931    2.384170    L3
Au    8.760000    8.429314    2.384170    L3
Au    17.520000    8.429314    2.384170    L3
Au    7.300000    0.842931    2.384170    L3
Au    16.059999    0.842931    2.384170    L3
Au    11.680000    8.429314    2.384170    L3
Au    20.440001    8.429314    2.384170    L3
Au    2.920000    3.371726    2.384170    L3
Au    11.680000    3.371726    2.384170    L3
Au    7.300000    10.958108    2.384170    L3
Au    16.059999    10.958108    2.384170    L3
Au    5.840000    3.371726    2.384170    L3
Au    14.600000    3.371726    2.384170    L3
Au    10.220000    10.958108    2.384170    L3
Au    18.980000    10.958108    2.384170    L3
Au    8.760000    3.371726    2.384170    L3
Au    17.520000    3.371726    2.384170    L3
Au    13.140000    10.958108    2.384170    L3
Au    21.900000    10.958108    2.384170    L3
Au    4.380000    5.900520    2.384170    L3
Au    13.140000    5.900520    2.384170    L3
Au    7.300000    5.900520    2.384170    L3
Au    16.059999    5.900520    2.384170    L3
Au    10.220000    5.900520    2.384170    L3
Au    18.980000    5.900520    2.384170    L3
Au    0.000000    1.685863    4.768340    L3
Au    8.760000    1.685863    4.768340    L3
Au    4.380000    9.272245    4.768340    L3
Au    13.140000    9.272245    4.768340    L3
Au    2.920000    1.685863    4.768340    L3
Au    11.680000    1.685863    4.768340    L3
Au    7.300000    9.272245    4.768340    L3
Au    16.059999    9.272245    4.768340    L3
Au    5.840000    1.685863    4.768340    L3
Au    14.600000    1.685863    4.768340    L3
Au    10.220000    9.272245    4.768340    L3
Au    18.980000    9.272245    4.768340    L3
Au    1.460000    4.214657    4.768340    L3
Au    10.220000    4.214657    4.768340    L3
Au    5.840000    11.801040    4.768340    L3
Au    14.600000    11.801040    4.768340    L3
Au    4.380000    4.214657    4.768340    L3
Au    13.140000    4.214657    4.768340    L3
Au    8.760000    11.801040    4.768340    L3
Au    17.520000    11.801040    4.768340    L3
Au    7.300000    4.214657    4.768340    L3
Au    16.059999    4.214657    4.768340    L3
Au    11.680000    11.801040    4.768340    L3
Au    20.440001    11.801040    4.768340    L3
Au    2.920000    6.743451    4.768340    L3
Au    11.680000    6.743451    4.768340    L3
Au    5.840000    6.743451    4.768340    L3
Au    14.600000    6.743451    4.768340    L3
Au    8.760000    6.743451    4.768340    L3
Au    17.520000    6.743451    4.768340    L3
Au    0.000000    0.000000    7.152510    L2
Au    8.760000    0.000000    7.152510    L2
Au    4.380000    7.586382    7.152510    L2
Au    13.140000    7.586382    7.152510    L2
Au    2.920000    0.000000    7.152510    L2
Au    11.680000    0.000000    7.152510    L2
Au    7.300000    7.586382    7.152510    L2
Au    16.059999    7.586382    7.152510    L2
Au    5.840000    0.000000    7.152510    L2
Au    14.600000    0.000000    7.152510    L2
Au    10.220000    7.586382    7.152510    L2
Au    18.980000    7.586382    7.152510    L2
Au    1.460000    2.528794    7.152510    L2
Au    10.220000    2.528794    7.152510    L2
Au    5.840000    10.115176    7.152510    L2
Au    14.600000    10.115176    7.152510    L2
Au    4.380000    2.528794    7.152510    L2
Au    13.140000    2.528794    7.152510    L2
Au    8.760000    10.115176    7.152510    L2
Au    17.520000    10.115176    7.152510    L2
Au    7.300000    2.528794    7.152510    L2
Au    16.059999    2.528794    7.152510    L2
Au    11.680000    10.115176    7.152510    L2
Au    20.440001    10.115176    7.152510    L2
Au    2.920000    5.057588    7.152510    L2
Au    11.680000    5.057588    7.152510    L2
Au    5.840000    5.057588    7.152510    L2
Au    14.600000    5.057588    7.152510    L2
Au    8.760000    5.057588    7.152510    L2
Au    17.520000    5.057588    7.152510    L2
Au    1.460000    0.842931    9.536680    L2
Au    10.220000    0.842931    9.536680    L2
Au    5.840000    8.429314    9.536680    L2
Au    14.600000    8.429314    9.536680    L2
Au    4.380000    0.842931    9.536680    L2
Au    13.140000    0.842931    9.536680    L2
Au    8.760000    8.429314    9.536680    L2
Au    17.520000    8.429314    9.536680    L2
Au    7.300000    0.842931    9.536680    L2
Au    16.059999    0.842931    9.536680    L2
Au    11.680000    8.429314    9.536680    L2
Au    20.440001    8.429314    9.536680    L2
Au    2.920000    3.371726    9.536680    L2
Au    11.680000    3.371726    9.536680    L2
Au    7.300000    10.958108    9.536680    L2
Au    16.059999    10.958108    9.536680    L2
Au    5.840000    3.371726    9.536680    L2
Au    14.600000    3.371726    9.536680    L2
Au    10.220000    10.958108    9.536680    L2
Au    18.980000    10.958108    9.536680    L2
Au    8.760000    3.371726    9.536680    L2
Au    17.520000    3.371726    9.536680    L2
Au    13.140000    10.958108    9.536680    L2
Au    21.900000    10.958108    9.536680    L2
Au    4.380000    5.900520    9.536680    L2
Au    13.140000    5.900520    9.536680    L2
Au    7.300000    5.900520    9.536680    L2
Au    16.059999    5.900520    9.536680    L2
Au    10.220000    5.900520    9.536680    L2
Au    18.980000    5.900520    9.536680    L2
Au    0.000000    1.685863    11.920850    L2
Au    8.760000    1.685863    11.920850    L2
Au    4.380000    9.272245    11.920850    L2
Au    13.140000    9.272245    11.920850    L2
Au    2.920000    1.685863    11.920850    L2
Au    11.680000    1.685863    11.920850    L2
Au    7.300000    9.272245    11.920850    L2
Au    16.059999    9.272245    11.920850    L2
Au    5.840000    1.685863    11.920850    L2
Au    14.600000    1.685863    11.920850    L2
Au    10.220000    9.272245    11.920850    L2
Au    18.980000    9.272245    11.920850    L2
Au    1.460000    4.214657    11.920850    L2
Au    10.220000    4.214657    11.920850    L2
Au    5.840000    11.801040    11.920850    L2
Au    14.600000    11.801040    11.920850    L2
Au    4.380000    4.214657    11.920850    L2
Au    13.140000    4.214657    11.920850    L2
Au    8.760000    11.801040    11.920850    L2
Au    17.520000    11.801040    11.920850    L2
Au    7.300000    4.214657    11.920850    L2
Au    16.059999    4.214657    11.920850    L2
Au    11.680000    11.801040    11.920850    L2
Au    20.440001    11.801040    11.920850    L2
Au    2.920000    6.743451    11.920850    L2
Au    11.680000    6.743451    11.920850    L2
Au    5.840000    6.743451    11.920850    L2
Au    14.600000    6.743451    11.920850    L2
Au    8.760000    6.743451    11.920850    L2
Au    17.520000    6.743451    11.920850    L2
Au    0.000000    0.000000    14.305019    L1
Au    8.760000    0.000000    14.305019    L1
Au    4.380000    7.586382    14.305019    L1
Au    13.140000    7.586382    14.305019    L1
Au    2.920000    0.000000    14.305019    L1
Au    11.680000    0.000000    14.305019    L1
Au    7.300000    7.586382    14.305019    L1
Au    16.059999    7.586382    14.305019    L1
Au    5.840000    0.000000    14.305019    L1
Au    14.600000    0.000000    14.305019    L1
Au    10.220000    7.586382    14.305019    L1
Au    18.980000    7.586382    14.305019    L1
Au    1.460000    2.528794    14.305019    L1
Au    10.220000    2.528794    14.305019    L1
Au    5.840000    10.115176    14.305019    L1
Au    14.600000    10.115176    14.305019    L1
Au    4.380000    2.528794    14.305019    L1
Au    13.140000    2.528794    14.305019    L1
Au    8.760000    10.115176    14.305019    L1
Au    17.520000    10.115176    14.305019    L1
Au    7.300000    2.528794    14.305019    L1
Au    16.059999    2.528794    14.305019    L1
Au    11.680000    10.115176    14.305019    L1
Au    20.440001    10.115176    14.305019    L1
Au    2.920000    5.057588    14.305019    L1
Au    11.680000    5.057588    14.305019    L1
Au    5.840000    5.057588    14.305019    L1
Au    14.600000    5.057588    14.305019    L1
Au    8.760000    5.057588    14.305019    L1
Au    17.520000    5.057588    14.305019    L1
Au    1.460000    0.842931    16.689190    L1
Au    10.220000    0.842931    16.689190    L1
Au    5.840000    8.429314    16.689190    L1
Au    14.600000    8.429314    16.689190    L1
Au    4.380000    0.842931    16.689190    L1
Au    13.140000    0.842931    16.689190    L1
Au    8.760000    8.429314    16.689190    L1
Au    17.520000    8.429314    16.689190    L1
Au    7.300000    0.842931    16.689190    L1
Au    16.059999    0.842931    16.689190    L1
Au    11.680000    8.429314    16.689190    L1
Au    20.440001    8.429314    16.689190    L1
Au    2.920000    3.371726    16.689190    L1
Au    11.680000    3.371726    16.689190    L1
Au    7.300000    10.958108    16.689190    L1
Au    16.059999    10.958108    16.689190    L1
Au    5.840000    3.371726    16.689190    L1
Au    14.600000    3.371726    16.689190    L1
Au    10.220000    10.958108    16.689190    L1
Au    18.980000    10.958108    16.689190    L1
Au    8.760000    3.371726    16.689190    L1
Au    17.520000    3.371726    16.689190    L1
Au    13.140000    10.958108    16.689190    L1
Au    21.900000    10.958108    16.689190    L1
Au    4.380000    5.900520    16.689190    L1
Au    13.140000    5.900520    16.689190    L1
Au    7.300000    5.900520    16.689190    L1
Au    16.059999    5.900520    16.689190    L1
Au    10.220000    5.900520    16.689190    L1
Au    18.980000    5.900520    16.689190    L1
Au    0.000000    1.685863    19.073360    L1
Au    8.760000    1.685863    19.073360    L1
Au    4.380000    9.272245    19.073360    L1
Au    13.140000    9.272245    19.073360    L1
Au    2.920000    1.685863    19.073360    L1
Au    11.680000    1.685863    19.073360    L1
Au    7.300000    9.272245    19.073360    L1
Au    16.059999    9.272245    19.073360    L1
Au    5.840000    1.685863    19.073360    L1
Au    14.600000    1.685863    19.073360    L1
Au    10.220000    9.272245    19.073360    L1
Au    18.980000    9.272245    19.073360    L1
Au    1.460000    4.214657    19.073360    L1
Au    10.220000    4.214657    19.073360    L1
Au    5.840000    11.801040    19.073360    L1
Au    14.600000    11.801040    19.073360    L1
Au    4.380000    4.214657    19.073360    L1
Au    13.140000    4.214657    19.073360    L1
Au    8.760000    11.801040    19.073360    L1
Au    17.520000    11.801040    19.073360    L1
Au    7.300000    4.214657    19.073360    L1
Au    16.059999    4.214657    19.073360    L1
Au    11.680000    11.801040    19.073360    L1
Au    20.440001    11.801040    19.073360    L1
Au    2.920000    6.743451    19.073360    L1
Au    11.680000    6.743451    19.073360    L1
Au    5.840000    6.743451    19.073360    L1
Au    14.600000    6.743451    19.073360    L1
Au    8.760000    6.743451    19.073360    L1
Au    17.520000    6.743451    19.073360    L1
Au    0.000000    0.000000    21.457529    L0
Au    8.760000    0.000000    21.457529    L0
Au    4.380000    7.586382    21.457529    L0
Au    13.140000    7.586382    21.457529    L0
Au    2.920000    0.000000    21.457529    L0
Au    11.680000    0.000000    21.457529    L0
Au    7.300000    7.586382    21.457529    L0
Au    16.059999    7.586382    21.457529    L0
Au    5.840000    0.000000    21.457529    L0
Au    14.600000    0.000000    21.457529    L0
Au    10.220000    7.586382    21.457529    L0
Au    18.980000    7.586382    21.457529    L0
Au    1.460000    2.528794    21.457529    L0
Au    10.220000    2.528794    21.457529    L0
Au    5.840000    10.115176    21.457529    L0
Au    14.600000    10.115176    21.457529    L0
Au    4.380000    2.528794    21.457529    L0
Au    13.140000    2.528794    21.457529    L0
Au    8.760000    10.115176    21.457529    L0
Au    17.520000    10.115176    21.457529    L0
Au    7.300000    2.528794    21.457529    L0
Au    16.059999    2.528794    21.457529    L0
Au    11.680000    10.115176    21.457529    L0
Au    20.440001    10.115176    21.457529    L0
Au    2.920000    5.057588    21.457529    L0
Au    11.680000    5.057588    21.457529    L0
Au    5.840000    5.057588    21.457529    L0
Au    14.600000    5.057588    21.457529    L0
Au    8.760000    5.057588    21.457529    L0
Au    17.520000    5.057588    21.457529    L0
Au    1.460000    0.842931    23.841700    L0
Au    10.220000    0.842931    23.841700    L0
Au    5.840000    8.429314    23.841700    L0
Au    14.600000    8.429314    23.841700    L0
Au    4.380000    0.842931    23.841700    L0
Au    13.140000    0.842931    23.841700    L0
Au    8.760000    8.429314    23.841700    L0
Au    17.520000    8.429314    23.841700    L0
Au    7.300000    0.842931    23.841700    L0
Au    16.059999    0.842931    23.841700    L0
Au    11.680000    8.429314    23.841700    L0
Au    20.440001    8.429314    23.841700    L0
Au    2.920000    3.371726    23.841700    L0
Au    11.680000    3.371726    23.841700    L0
Au    7.300000    10.958108    23.841700    L0
Au    16.059999    10.958108    23.841700    L0
Au    5.840000    3.371726    23.841700    L0
Au    14.600000    3.371726    23.841700    L0
Au    10.220000    10.958108    23.841700    L0
Au    18.980000    10.958108    23.841700    L0
Au    8.760000    3.371726    23.841700    L0
Au    17.520000    3.371726    23.841700    L0
Au    13.140000    10.958108    23.841700    L0
Au    21.900000    10.958108    23.841700    L0
Au    4.380000    5.900520    23.841700    L0
Au    13.140000    5.900520    23.841700    L0
Au    7.300000    5.900520    23.841700    L0
Au    16.059999    5.900520    23.841700    L0
Au    10.220000    5.900520    23.841700    L0
Au    18.980000    5.900520    23.841700    L0
Au    0.000000    1.685863    26.225870    L0
Au    8.760000    1.685863    26.225870    L0
Au    4.380000    9.272245    26.225870    L0
Au    13.140000    9.272245    26.225870    L0
Au    2.920000    1.685863    26.225870    L0
Au    11.680000    1.685863    26.225870    L0
Au    7.300000    9.272245    26.225870    L0
Au    16.059999    9.272245    26.225870    L0
Au    5.840000    1.685863    26.225870    L0
Au    14.600000    1.685863    26.225870    L0
Au    10.220000    9.272245    26.225870    L0
Au    18.980000    9.272245    26.225870    L0
Au    1.460000    4.214657    26.225870    L0
Au    10.220000    4.214657    26.225870    L0
Au    5.840000    11.801040    26.225870    L0
Au    14.600000    11.801040    26.225870    L0
Au    4.380000    4.214657    26.225870    L0
Au    13.140000    4.214657    26.225870    L0
Au    8.760000    11.801040    26.225870    L0
Au    17.520000    11.801040    26.225870    L0
Au    7.300000    4.214657    26.225870    L0
Au    16.059999    4.214657    26.225870    L0
Au    11.680000    11.801040    26.225870    L0
Au    20.440001    11.801040    26.225870    L0
Au    2.920000    6.743451    26.225870    L0
Au    11.680000    6.743451    26.225870    L0
Au    5.840000    6.743451    26.225870    L0
Au    14.600000    6.743451    26.225870    L0
Au    8.760000    6.743451    26.225870    L0
Au    17.520000    6.743451    26.225870    L0
