14
Mg2
Fe1 0.000002000 1.842495000 10.0 
Mg 0.000002000 1.842495000 13.604186099 
Mg 0.000002000 1.842495000 18.812172222 
Mg 0.000002000 1.842495000 23.994994131000002 
Mg 0.000002000 1.842495000 29.182078656 
Fe2 0.000002000 1.842495000 33.873855060000004 
H 0.000002000 1.842495000 8.440255929 
H 1.595652000 0.921248000 36.959266647 
Fe2 1.595652000 0.921248000 11.525942879 
Mg 1.595652000 0.921248000 16.217813452 
Mg 1.595652000 0.921248000 21.405067827 
Mg 1.595652000 0.921248000 26.588273352 
Mg 1.595652000 0.921248000 31.796223993 
Fe1 1.595652000 0.921248000 35.399568452000004 
