14
Mg2
Fe1      0.000002000   1.842495000   7.962223316
Mg       0.000002000   1.842495000  11.720899200
Mg       0.000002000   1.842495000  16.927963901
Mg       0.000002000   1.842495000  22.100001883
Mg       0.000002000   1.842495000  27.280257628
Fe2      0.000002000   1.842495000  32.004368901
Fe3      3.191302300  -0.000000000  35.265159400
Fe3      3.191302300  -0.000000000   6.346905809
Fe2      1.595652000   0.921248000   9.608150948
Mg       1.595652000   0.921248000  14.334284995
Mg       1.595652000   0.921248000  19.516176993
Mg       1.595652000   0.921248000  24.687610741
Mg       1.595652000   0.921248000  29.892351724
Fe1      1.595652000   0.921248000  33.649973560