12
Mg2
Mg 0.000002000 1.842495000 12.182734809 
Mg 0.000002000 1.842495000 17.367124237 
Mg 0.000002000 1.842495000 22.525452888000004 
Mg 0.000002000 1.842495000 27.690928958999997 
Fe 0.000002000 1.842495000 32.473758863 
H 0.000002000 1.842495000 34.058062407 
H 1.595652000 0.921248000 8.415673037000001 
Fe 1.595652000 0.921248000 10.0 
Mg 1.595652000 0.921248000 14.783432586 
Mg 1.595652000 0.921248000 19.948778644 
Mg 1.595652000 0.921248000 25.106534679 
Mg 1.595652000 0.921248000 30.291433546 
