12
Mg2
H        1.595652000   0.921248000   9.124852490
Mg       0.000002000   1.842495000   9.989829897
Mg       0.000002000   1.842495000  15.170753466
Mg       0.000002000   1.842495000  20.364500255
Mg       0.000002000   1.842495000  25.561340958
Mg       0.000002000   1.842495000  30.742084217
Mg       1.595652000   0.921248000  12.581555611
Mg       1.595652000   0.921248000  17.766626474
Mg       1.595652000   0.921248000  22.965207140
Mg       1.595652000   0.921248000  28.155123277
Mg       1.595652000   0.921248000  33.333666981
H        0.000002000   1.842495000  34.197680964


