16
Mg2
Fe1 0.000002000 1.842495000 11.69024886 
Mg 0.000002000 1.842495000 15.415647158 
Mg 0.000002000 1.842495000 20.618722402000003 
Mg 0.000002000 1.842495000 25.792581089000002 
Mg 0.000002000 1.842495000 30.976031747 
Fe2 0.000002000 1.842495000 35.700715252 
Fe3 3.191302300 0.000000000 39.005203623999996 
H 3.191302300 0.000000000 40.579322143 
H 3.191302300 0.000000000 8.425924836 
Fe3 3.191302300 0.000000000 10.0 
Fe2 1.595652000 0.921248000 13.303984149 
Mg 1.595652000 0.921248000 18.026763538 
Mg 1.595652000 0.921248000 23.206674299 
Mg 1.595652000 0.921248000 28.382298829 
Mg 1.595652000 0.921248000 33.588394358 
Fe1 1.595652000 0.921248000 37.31478978 
