14
Mg2
Fe1 0.000002000 1.842495000 11.615317507 
Mg 0.000002000 1.842495000 15.373993390999999 
Mg 0.000002000 1.842495000 20.581058092 
Mg 0.000002000 1.842495000 25.753096074000002 
Mg 0.000002000 1.842495000 30.933351819000002 
Fe2 0.000002000 1.842495000 35.657463092 
Fe3 3.191302300 -0.000000000 38.918253591 
Fe3 3.191302300 -0.000000000 10.0 
Fe2 1.595652000 0.921248000 13.261245139 
Mg 1.595652000 0.921248000 17.987379186000002 
Mg 1.595652000 0.921248000 23.169271184 
Mg 1.595652000 0.921248000 28.340704932 
Mg 1.595652000 0.921248000 33.545445915 
Fe1 1.595652000 0.921248000 37.303067751 
