8
Mg2
Mg 0.000002000 1.842495000 10.0 
Mg 0.000002000 1.842495000 15.205947811 
Mg 0.000002000 1.842495000 20.36245355 
Mg 0.000002000 1.842495000 25.53255518 
Mg 1.595652000 0.921248000 12.618984027 
Mg 1.595652000 0.921248000 17.788475593 
Mg 1.595652000 0.921248000 22.945206004 
Mg 1.595652000 0.921248000 28.151923102 
