192
XYZ file
Au    0.000000    0.000000    0.000000
Au    8.760000    0.000000    0.000000
Au    4.380000    7.586382    0.000000
Au   13.140000    7.586382    0.000000
Au    2.920000    0.000000    0.000000
Au    7.300000    7.586382    0.000000
Au    5.840000    0.000000    0.000000
Au   10.220000    7.586382    0.000000
Au    1.460000    2.528794    0.000000
Au   10.220000    2.528794    0.000000
Au    4.380000    2.528794    0.000000
Au    7.300000    2.528794    0.000000
Au    2.920000    5.057588    0.000000
Au   11.680000    5.057588    0.000000
Au    5.840000    5.057588    0.000000
Au    8.760000    5.057588    0.000000
Au    1.460000    0.842931    2.384170
Au   10.220000    0.842931    2.384170
Au    5.840000    8.429314    2.384170
Au   14.600000    8.429314    2.384170
Au    4.380000    0.842931    2.384170
Au    8.760000    8.429314    2.384170
Au    7.300000    0.842931    2.384170
Au   11.680000    8.429314    2.384170
Au    2.920000    3.371726    2.384170
Au   11.680000    3.371726    2.384170
Au    5.840000    3.371726    2.384170
Au    8.760000    3.371726    2.384170
Au    4.380000    5.900520    2.384170
Au   13.140000    5.900520    2.384170
Au    7.300000    5.900520    2.384170
Au   10.220000    5.900520    2.384170
Au    8.760000    1.685863    4.768340
Au   13.140000    9.272245    4.768340
Au    2.920000    1.685863    4.768340
Au   11.680000    1.685863    4.768340
Au    7.300000    9.272245    4.768340
Au   16.059999    9.272245    4.768340
Au    5.840000    1.685863    4.768340
Au   10.220000    9.272245    4.768340
Au   10.220000    4.214657    4.768340
Au    4.380000    4.214657    4.768340
Au   13.140000    4.214657    4.768340
Au    7.300000    4.214657    4.768340
Au   11.680000    6.743451    4.768340
Au    5.840000    6.743451    4.768340
Au   14.600000    6.743451    4.768340
Au    8.760000    6.743451    4.768340
Au    0.000000    0.000000    7.152510
Au    8.760000    0.000000    7.152510
Au    4.380000    7.586382    7.152510
Au   13.140000    7.586382    7.152510
Au    2.920000    0.000000    7.152510
Au    7.300000    7.586382    7.152510
Au    5.840000    0.000000    7.152510
Au   10.220000    7.586382    7.152510
Au    1.460000    2.528794    7.152510
Au   10.220000    2.528794    7.152510
Au    4.380000    2.528794    7.152510
Au    7.300000    2.528794    7.152510
Au    2.920000    5.057588    7.152510
Au   11.680000    5.057588    7.152510
Au    5.840000    5.057588    7.152510
Au    8.760000    5.057588    7.152510
Au    1.460000    0.842931    9.536680
Au   10.220000    0.842931    9.536680
Au    5.840000    8.429314    9.536680
Au   14.600000    8.429314    9.536680
Au    4.380000    0.842931    9.536680
Au    8.760000    8.429314    9.536680
Au    7.300000    0.842931    9.536680
Au   11.680000    8.429314    9.536680
Au    2.920000    3.371726    9.536680
Au   11.680000    3.371726    9.536680
Au    5.840000    3.371726    9.536680
Au    8.760000    3.371726    9.536680
Au    4.380000    5.900520    9.536680
Au   13.140000    5.900520    9.536680
Au    7.300000    5.900520    9.536680
Au   10.220000    5.900520    9.536680
Au    8.760000    1.685863   11.920850
Au   13.140000    9.272245   11.920850
Au    2.920000    1.685863   11.920850
Au   11.680000    1.685863   11.920850
Au    7.300000    9.272245   11.920850
Au   16.059999    9.272245   11.920850
Au    5.840000    1.685863   11.920850
Au   10.220000    9.272245   11.920850
Au   10.220000    4.214657   11.920850
Au    4.380000    4.214657   11.920850
Au   13.140000    4.214657   11.920850
Au    7.300000    4.214657   11.920850
Au   11.680000    6.743451   11.920850
Au    5.840000    6.743451   11.920850
Au   14.600000    6.743451   11.920850
Au    8.760000    6.743451   11.920850
Au    0.000000    0.000000   14.305019
Au    8.760000    0.000000   14.305019
Au    4.380000    7.586382   14.305019
Au   13.140000    7.586382   14.305019
Au    2.920000    0.000000   14.305019
Au    7.300000    7.586382   14.305019
Au    5.840000    0.000000   14.305019
Au   10.220000    7.586382   14.305019
Au    1.460000    2.528794   14.305019
Au   10.220000    2.528794   14.305019
Au    4.380000    2.528794   14.305019
Au    7.300000    2.528794   14.305019
Au    2.920000    5.057588   14.305019
Au   11.680000    5.057588   14.305019
Au    5.840000    5.057588   14.305019
Au    8.760000    5.057588   14.305019
Au    1.460000    0.842931   16.689190
Au   10.220000    0.842931   16.689190
Au    5.840000    8.429314   16.689190
Au   14.600000    8.429314   16.689190
Au    4.380000    0.842931   16.689190
Au    8.760000    8.429314   16.689190
Au    7.300000    0.842931   16.689190
Au   11.680000    8.429314   16.689190
Au    2.920000    3.371726   16.689190
Au   11.680000    3.371726   16.689190
Au    5.840000    3.371726   16.689190
Au    8.760000    3.371726   16.689190
Au    4.380000    5.900520   16.689190
Au   13.140000    5.900520   16.689190
Au    7.300000    5.900520   16.689190
Au   10.220000    5.900520   16.689190
Au    8.760000    1.685863   19.073360
Au   13.140000    9.272245   19.073360
Au    2.920000    1.685863   19.073360
Au   11.680000    1.685863   19.073360
Au    7.300000    9.272245   19.073360
Au   16.059999    9.272245   19.073360
Au    5.840000    1.685863   19.073360
Au   10.220000    9.272245   19.073360
Au   10.220000    4.214657   19.073360
Au    4.380000    4.214657   19.073360
Au   13.140000    4.214657   19.073360
Au    7.300000    4.214657   19.073360
Au   11.680000    6.743451   19.073360
Au    5.840000    6.743451   19.073360
Au   14.600000    6.743451   19.073360
Au    8.760000    6.743451   19.073360
Au    0.000000    0.000000   21.457529
Au    8.760000    0.000000   21.457529
Au    4.380000    7.586382   21.457529
Au   13.140000    7.586382   21.457529
Au    2.920000    0.000000   21.457529
Au    7.300000    7.586382   21.457529
Au    5.840000    0.000000   21.457529
Au   10.220000    7.586382   21.457529
Au    1.460000    2.528794   21.457529
Au   10.220000    2.528794   21.457529
Au    4.380000    2.528794   21.457529
Au    7.300000    2.528794   21.457529
Au    2.920000    5.057588   21.457529
Au   11.680000    5.057588   21.457529
Au    5.840000    5.057588   21.457529
Au    8.760000    5.057588   21.457529
Au    1.460000    0.842931   23.841700
Au   10.220000    0.842931   23.841700
Au    5.840000    8.429314   23.841700
Au   14.600000    8.429314   23.841700
Au    4.380000    0.842931   23.841700
Au    8.760000    8.429314   23.841700
Au    7.300000    0.842931   23.841700
Au   11.680000    8.429314   23.841700
Au    2.920000    3.371726   23.841700
Au   11.680000    3.371726   23.841700
Au    5.840000    3.371726   23.841700
Au    8.760000    3.371726   23.841700
Au    4.380000    5.900520   23.841700
Au   13.140000    5.900520   23.841700
Au    7.300000    5.900520   23.841700
Au   10.220000    5.900520   23.841700
Au    8.760000    1.685863   26.225870
Au   13.140000    9.272245   26.225870
Au    2.920000    1.685863   26.225870
Au   11.680000    1.685863   26.225870
Au    7.300000    9.272245   26.225870
Au   16.059999    9.272245   26.225870
Au    5.840000    1.685863   26.225870
Au   10.220000    9.272245   26.225870
Au   10.220000    4.214657   26.225870
Au    4.380000    4.214657   26.225870
Au   13.140000    4.214657   26.225870
Au    7.300000    4.214657   26.225870
Au   11.680000    6.743451   26.225870
Au    5.840000    6.743451   26.225870
Au   14.600000    6.743451   26.225870
Au    8.760000    6.743451   26.225870
