13
Fe2
Fe    0    0    7.5
Fe    1.641406721    1.160649796    9.510304451
Fe    0    0    11.520608902
Fe    1.641406721    1.160649796    13.530913352999999
Fe    0    0    15.541217804
Fe    1.641406721    1.160649796    17.551522255000002
Fe    0    0    19.561826706
Fe    1.641406721    1.160649796    21.572131157
Fe    0    0    23.582435608
Fe    1.641406721    1.160649796    25.592740059
Fe    0    0    27.60304451
Fe    1.641406721    1.160649796    29.613348961
Fe    0    0    31.623653412
