155

Au     0.000000     0.000000     0.000000     L3
Au     8.760000     0.000000     0.000000     L3
Au     4.380000     7.586382     0.000000     L3
Au     13.140000     7.586382     0.000000     L3
Au     2.920000     0.000000     0.000000     L3
Au     11.680000     0.000000     0.000000     L3
Au     7.300000     7.586382     0.000000     L3
Au     16.059999     7.586382     0.000000     L3
Au     5.840000     0.000000     0.000000     L3
Au     10.220000     7.586382     0.000000     L3
Au     1.460000     2.528794     0.000000     L3
Au     10.220000     2.528794     0.000000     L3
Au     5.840000     10.115176     0.000000     L3
Au     14.600000     10.115176     0.000000     L3
Au     4.380000     2.528794     0.000000     L3
Au     13.140000     2.528794     0.000000     L3
Au     8.760000     10.115176     0.000000     L3
Au     17.520000     10.115176     0.000000     L3
Au     7.300000     2.528794     0.000000     L3
Au     11.680000     10.115176     0.000000     L3
Au     2.920000     5.057588     0.000000     L3
Au     11.680000     5.057588     0.000000     L3
Au     5.840000     5.057588     0.000000     L3
Au     14.600000     5.057588     0.000000     L3
Au     8.760000     5.057588     0.000000     L3
Au     1.460000     0.842931     2.384170     L3
Au     10.220000     0.842931     2.384170     L3
Au     5.840000     8.429314     2.384170     L3
Au     14.600000     8.429314     2.384170     L3
Au     4.380000     0.842931     2.384170     L3
Au     13.140000     0.842931     2.384170     L3
Au     8.760000     8.429314     2.384170     L3
Au     17.520000     8.429314     2.384170     L3
Au     7.300000     0.842931     2.384170     L3
Au     11.680000     8.429314     2.384170     L3
Au     2.920000     3.371726     2.384170     L3
Au     11.680000     3.371726     2.384170     L3
Au     7.300000     10.958108     2.384170     L3
Au     16.059999     10.958108     2.384170     L3
Au     5.840000     3.371726     2.384170     L3
Au     14.600000     3.371726     2.384170     L3
Au     10.220000     10.958108     2.384170     L3
Au     18.980000     10.958108     2.384170     L3
Au     8.760000     3.371726     2.384170     L3
Au     13.140000     10.958108     2.384170     L3
Au     4.380000     5.900520     2.384170     L3
Au     13.140000     5.900520     2.384170     L3
Au     7.300000     5.900520     2.384170     L3
Au     16.059999     5.900520     2.384170     L3
Au     10.220000     5.900520     2.384170     L3
Au     8.760000     1.685863     4.768340     L3
Au     13.140000     9.272245     4.768340     L3
Au     2.920000     1.685863     4.768340     L3
Au     11.680000     1.685863     4.768340     L3
Au     7.300000     9.272245     4.768340     L3
Au     16.059999     9.272245     4.768340     L3
Au     5.840000     1.685863     4.768340     L3
Au     14.600000     1.685863     4.768340     L3
Au     10.220000     9.272245     4.768340     L3
Au     18.980000     9.272245     4.768340     L3
Au     10.220000     4.214657     4.768340     L3
Au     14.600000     11.801040     4.768340     L3
Au     4.380000     4.214657     4.768340     L3
Au     13.140000     4.214657     4.768340     L3
Au     8.760000     11.801040     4.768340     L3
Au     17.520000     11.801040     4.768340     L3
Au     7.300000     4.214657     4.768340     L3
Au     16.059999     4.214657     4.768340     L3
Au     11.680000     11.801040     4.768340     L3
Au     20.440001     11.801040     4.768340     L3
Au     11.680000     6.743451     4.768340     L3
Au     5.840000     6.743451     4.768340     L3
Au     14.600000     6.743451     4.768340     L3
Au     8.760000     6.743451     4.768340     L3
Au     17.520000     6.743451     4.768340     L3
C    10.125444503951831    5.811015505193989    8.813769631336543    S
C    10.16179249615076    4.718714067420368    9.684775177309804    S
C    9.79021320311402    4.875885017549695    11.022412284620113    S
C    9.375841930427315    6.122146703025113    11.51675240206022    S
C    9.712038129003238    7.057890742423718    9.290804777601586    S
C    9.341594929486838    7.208834938235098    10.629326600305674    S
C    10.717942861064369    7.469492378448631    17.640094447906197    S
H    9.815764210160552    4.015476444353112    11.695390352186303    S
H    10.411928976016386    5.690108646016416    7.76834    S
H    9.67339591297731    7.915294083800273    8.617090754492747    S
H    9.013788306022308    8.185721374890239    10.992754224889813    S
H    10.476235505336946    3.7394647323401067    9.32045560784311    S
C    10.746440385587096    6.385179885881124    18.530620274175    S
C    10.372956415617285    6.541043651188495    19.867756279098003    S
C    9.962425151586919    7.7905654440410075    20.340295980949225    S
C    9.931916158227306    8.880556654803083    19.466181883893917    S
C    10.306379191406197    8.718480639091998    18.129953264216745    S
H    10.406902138933575    5.6853309153588505    20.54387071691214    S
H    11.071868765875992    5.406205459452989    18.17071481338207    S
H    9.619821174987049    9.861848978947993    19.827024235777184    S
H    10.28539765005403    9.577112706141252    17.454563910860962    S
H    9.67339591297731    7.915294083800273    21.38458846348866    S
C    9.020011896391726    6.300148448809285    12.973454969610152    S
C    11.07621292878527    7.2864853429907335    16.184580385288147    S
C    9.86821264579504    6.88875761560997    15.316015877113283    S
C    10.228227551901362    6.69942726313781    13.841042763991124    S
H    9.08563164938324    7.659883668403236    15.413062888073512    S
H    9.428512572688113    5.959407032220193    15.715183234222804    S
H    10.666449684876513    7.629306400693524    13.441520923710366    S
H    11.011722663616595    5.929270616475451    13.74365340040713    S
H    8.589542321877236    5.364770225913414    13.365962384224737    S
H    8.237979608439247    7.070338150346576    13.071507372269187    S
H    11.855975459919733    6.513534046466525    16.090014844378388    S
H    11.51033734900003    8.219490302770982    15.79044235894318    S
Au    8.760002    1.685863   24.38458846348866 R0
Au   13.140000    9.272246   24.38458846348866 R0
Au    2.920000    1.685863   24.38458846348866 R0
Au   11.680000    1.685863   24.38458846348866 R0
Au    7.300000    9.272246   24.38458846348866 R0
Au   16.059999    9.272246   24.38458846348866 R0
Au    5.840001    1.685863   24.38458846348866 R0
Au   14.600000    1.685863   24.38458846348866 R0
Au   10.220000    9.272246   24.38458846348866 R0
Au   18.980000    9.272246   24.38458846348866 R0
Au   10.220001    4.214657   24.38458846348866 R0
Au   14.600000   11.801040   24.38458846348866 R0
Au    4.380000    4.214657   24.38458846348866 R0
Au   13.140000    4.214657   24.38458846348866 R0
Au    8.760000   11.801040   24.38458846348866 R0
Au   17.520000   11.801040   24.38458846348866 R0
Au    7.300000    4.214657   24.38458846348866 R0
Au   16.059999    4.214657   24.38458846348866 R0
Au   11.680000   11.801040   24.38458846348866 R0
Au   20.440001   11.801040   24.38458846348866 R0
Au   11.680000    6.743451   24.38458846348866 R0
Au    5.840000    6.743451   24.38458846348866 R0
Au   14.600000    6.743451   24.38458846348866 R0
Au    8.760000    6.743451   24.38458846348866 R0
Au   17.520000    6.743451   24.38458846348866 R0
Au    1.460000    0.842931   26.768758463488663 R0
Au   10.220000    0.842931   26.768758463488663 R0
Au    5.840001    8.429314   26.768758463488663 R0
Au   14.600000    8.429314   26.768758463488663 R0
Au    4.380000    0.842931   26.768758463488663 R0
Au   13.140001    0.842931   26.768758463488663 R0
Au    8.760000    8.429314   26.768758463488663 R0
Au   17.520000    8.429314   26.768758463488663 R0
Au    7.300001    0.842931   26.768758463488663 R0
Au   11.680000    8.429314   26.768758463488663 R0
Au    2.920000    3.371726   26.768758463488663 R0
Au   11.680001    3.371726   26.768758463488663 R0
Au    7.300000   10.958109   26.768758463488663 R0
Au   16.059998   10.958109   26.768758463488663 R0
Au    5.840000    3.371726   26.768758463488663 R0
Au   14.600000    3.371726   26.768758463488663 R0
Au   10.220000   10.958109   26.768758463488663 R0
Au   18.980000   10.958109   26.768758463488663 R0
Au    8.760000    3.371726   26.768758463488663 R0
Au   13.139999   10.958109   26.768758463488663 R0
Au    4.380000    5.900520   26.768758463488663 R0
Au   13.140000    5.900520   26.768758463488663 R0
Au    7.300000    5.900520   26.768758463488663 R0
Au   16.059999    5.900520   26.768758463488663 R0
Au   10.220000    5.900520   26.768758463488663 R0
Au    0.000000    0.000000   29.152928463488664 R0
Au    8.760000    0.000000   29.152928463488664 R0
Au    4.380000    7.586382   29.152928463488664 R0
Au   13.139999    7.586382   29.152928463488664 R0
Au    2.920000    0.000000   29.152928463488664 R0
Au   11.680000    0.000000   29.152928463488664 R0
Au    7.300000    7.586382   29.152928463488664 R0
Au   16.059999    7.586382   29.152928463488664 R0
Au    5.840000    0.000000   29.152928463488664 R0
Au   10.220000    7.586382   29.152928463488664 R0
Au    1.460000    2.528794   29.152928463488664 R0
Au   10.220000    2.528794   29.152928463488664 R0
Au    5.840000   10.115176   29.152928463488664 R0
Au   14.600000   10.115176   29.152928463488664 R0
Au    4.380000    2.528794   29.152928463488664 R0
Au   13.140000    2.528794   29.152928463488664 R0
Au    8.760000   10.115176   29.152928463488664 R0
Au   17.520000   10.115176   29.152928463488664 R0
Au    7.300000    2.528794   29.152928463488664 R0
Au   11.680000   10.115176   29.152928463488664 R0
Au    2.920000    5.057588   29.152928463488664 R0
Au   11.680000    5.057588   29.152928463488664 R0
Au    5.840000    5.057588   29.152928463488664 R0
Au   14.600000    5.057588   29.152928463488664 R0
Au    8.760000    5.057588   29.152928463488664 R0
