155

Au     0.000000     0.000000     0.000000     L3
Au     8.760000     0.000000     0.000000     L3
Au     4.380000     7.586382     0.000000     L3
Au     13.140000     7.586382     0.000000     L3
Au     2.920000     0.000000     0.000000     L3
Au     11.680000     0.000000     0.000000     L3
Au     7.300000     7.586382     0.000000     L3
Au     16.059999     7.586382     0.000000     L3
Au     5.840000     0.000000     0.000000     L3
Au     10.220000     7.586382     0.000000     L3
Au     1.460000     2.528794     0.000000     L3
Au     10.220000     2.528794     0.000000     L3
Au     5.840000     10.115176     0.000000     L3
Au     14.600000     10.115176     0.000000     L3
Au     4.380000     2.528794     0.000000     L3
Au     13.140000     2.528794     0.000000     L3
Au     8.760000     10.115176     0.000000     L3
Au     17.520000     10.115176     0.000000     L3
Au     7.300000     2.528794     0.000000     L3
Au     11.680000     10.115176     0.000000     L3
Au     2.920000     5.057588     0.000000     L3
Au     11.680000     5.057588     0.000000     L3
Au     5.840000     5.057588     0.000000     L3
Au     14.600000     5.057588     0.000000     L3
Au     8.760000     5.057588     0.000000     L3
Au     1.460000     0.842931     2.384170     L3
Au     10.220000     0.842931     2.384170     L3
Au     5.840000     8.429314     2.384170     L3
Au     14.600000     8.429314     2.384170     L3
Au     4.380000     0.842931     2.384170     L3
Au     13.140000     0.842931     2.384170     L3
Au     8.760000     8.429314     2.384170     L3
Au     17.520000     8.429314     2.384170     L3
Au     7.300000     0.842931     2.384170     L3
Au     11.680000     8.429314     2.384170     L3
Au     2.920000     3.371726     2.384170     L3
Au     11.680000     3.371726     2.384170     L3
Au     7.300000     10.958108     2.384170     L3
Au     16.059999     10.958108     2.384170     L3
Au     5.840000     3.371726     2.384170     L3
Au     14.600000     3.371726     2.384170     L3
Au     10.220000     10.958108     2.384170     L3
Au     18.980000     10.958108     2.384170     L3
Au     8.760000     3.371726     2.384170     L3
Au     13.140000     10.958108     2.384170     L3
Au     4.380000     5.900520     2.384170     L3
Au     13.140000     5.900520     2.384170     L3
Au     7.300000     5.900520     2.384170     L3
Au     16.059999     5.900520     2.384170     L3
Au     10.220000     5.900520     2.384170     L3
Au     8.760000     1.685863     4.768340     L3
Au     13.140000     9.272245     4.768340     L3
Au     2.920000     1.685863     4.768340     L3
Au     11.680000     1.685863     4.768340     L3
Au     7.300000     9.272245     4.768340     L3
Au     16.059999     9.272245     4.768340     L3
Au     5.840000     1.685863     4.768340     L3
Au     14.600000     1.685863     4.768340     L3
Au     10.220000     9.272245     4.768340     L3
Au     18.980000     9.272245     4.768340     L3
Au     10.220000     4.214657     4.768340     L3
Au     14.600000     11.801040     4.768340     L3
Au     4.380000     4.214657     4.768340     L3
Au     13.140000     4.214657     4.768340     L3
Au     8.760000     11.801040     4.768340     L3
Au     17.520000     11.801040     4.768340     L3
Au     7.300000     4.214657     4.768340     L3
Au     16.059999     4.214657     4.768340     L3
Au     11.680000     11.801040     4.768340     L3
Au     20.440001     11.801040     4.768340     L3
Au     11.680000     6.743451     4.768340     L3
Au     5.840000     6.743451     4.768340     L3
Au     14.600000     6.743451     4.768340     L3
Au     8.760000     6.743451     4.768340     L3
Au     17.520000     6.743451     4.768340     L3
C    8.6288841616    1.5850702315    18.1907041322    S
C    10.0471286349    1.6960971608    17.9249504911    S
C    10.228347338899999    1.967160254    16.5152324478    S
C    8.8929355846    2.025196182    15.8969361290    S
C    7.919817915400001    1.7894303902000002    16.9420667629    S
C    6.6980906157    2.4716607473    16.9432052796    S
C    6.426362046300001    3.4327364029    15.9024681811    S
C    7.392229923499999    3.6671862088000005    14.9126301297    S
C    8.629282501099999    2.9361425393    14.8911158945    S
C    9.705085258399999    3.7298404457    14.1570360362    S
C    11.1599002085    3.6601322058    14.8254231436    S
C    11.2324204601    2.8171003599    16.0940648680    S
C    12.068634475000001    3.4506694853999997    17.0745921824    S
C    11.92793736    3.178533014    18.4430397495    S
C    10.890211646100001    2.2783061900000003    18.8795539476    S
C    10.343922885500001    2.7853207529    20.1228811440    S
C    11.050743242800001    4.0109917666    20.4547326292    S
C    12.0325203784    4.2532089806    19.4135216543    S
C    12.287505120899999    5.5559343215000006    18.9816079393    S
C    12.4474848988    5.8347854478    17.5651405180    S
C    12.3354088559    4.8010479752    16.6260291269    S
C    11.6708533647    4.9976355913    15.3649495231    S
C    11.076109958599998    6.2201166124    15.1110988493    S
C    9.739161242300002    6.283162686100001    14.4934472421    S
C    9.0673482035    5.119715034    14.1655675891    S
C    7.6621929334    5.0192158815    14.4648396526    S
C    6.954450680999999    6.0942347089    15.0234953093    S
C    5.9678821933999995    5.8523795537000005    16.0626492851    S
C    5.711933950000001    4.54918738    16.4943269010    S
C    5.546843447799999    4.2700609802    17.9085786043    S
C    5.641898842    5.304895145500001    18.8433203091    S
C    5.909004636099999    6.659990415    18.3957949846    S
C    6.0679880243    6.9277118064000005    17.0316536439    S
C    7.1162489788    7.8288886277000005    16.5874290213    S
C    7.656435352000001    7.3136047668    15.3447797387    S
C    9.0327973809    7.396437139900001    15.0919521893    S
C    9.9078038057    8.0189212669    16.0665363344    S
C    11.162986078200001    7.2940675253    16.0761322196    S
C    11.849297510800001    7.1129089355    17.2840589894    S
C    11.3043037496    7.633910553800001    18.5223917294    S
C    11.577143117    6.6718644117000006    19.5761799071    S
C    10.628417937699998    6.441527365100001    20.5786515262    S
C    10.3592442776    5.0850772205    21.0263216086    S
C    8.9357479205    4.9736679215    21.2888200864    S
C    8.3248597043    6.2607720218    21.0055152048    S
C    9.3712456782    7.1670030707    20.5656672075    S
C    9.111463373800001    8.0944229515    19.5502089087    S
C    10.0929026097    8.329472837299999    18.5116116103    S
C    9.3843826854    8.5277704403    17.2588403770    S
C    7.9639109358999995    8.4236945189    17.5272830857    S
C    7.793665885899999    8.1519723286    18.9395828070    S
C    6.784405273700001    7.2851533554    19.3690394065    S
C    7.0558759612    6.3196071685    20.4187073809    S
C    6.347814484700001    5.0947648994    20.0928971495    S
C    6.9364200401    3.8538774928999997    20.3608204589    S
C    8.255880234400001    3.7916238765    20.9711447571    S
C    8.9716976756    2.6806412483    20.3762657747    S
C    8.0992079407    2.0609817327    19.3938786044    S
C    6.8394956287    2.7825025312    19.3905548280    S
C    6.1560822215    2.9843197983    18.1863905908    S
C    12.048382214799998    3.0493848427000003    13.6501449381    S
C    9.9712587606    3.1572901192    12.6974434403    S
N    11.3812539956    3.3357894235999996    12.3902663708    S
H    13.0754557306    3.4349532142    13.6681815412    S
H    12.086628159999998    1.9591582092    13.7986614068    S
H    9.752291164299999    2.078759997    12.7218579702    S
H    9.3237544214    3.6210750838    11.9447558155    S
C    10.976825064200002    4.936607406    10.5372401866    S
C    10.1588485181    6.0721418082000005    10.4744291259    S
C    9.370606286500001    6.3313115778    9.3548750563    S
C    9.3682117632    5.4343403491    8.2704334323    S
C    11.0129747327    4.0756239092    9.4264135290    S
C    10.2205629753    4.3146091543    8.3078950014    S
H    10.1236730222    6.7574692775    11.3231150751    S
H    11.650646247100001    3.1906821952    9.4556813782    S
H    10.237512311400002    3.6216850492    7.4653442240    S
H    8.7295624189    7.2122884205    9.3259755487    S
S    8.130761824799999    5.6926126847    7.0374791105    S
C    11.7654595324    4.6353727141    11.7874985585    S
H    12.8378620361    4.5549091155    11.5460238748    S
H    11.6604656175    5.4819704888    12.4886990251    S
