334

Au    1.664900    0.000000    0.000000    L3
Au    6.659800    0.000000    0.000000    L3
Au    4.162300    1.441900    0.000000    L3
Au    9.157200    1.441900    0.000000    L3
Au    6.659800    2.883800    0.000000    L3
Au    11.654600    2.883800    0.000000    L3
Au    4.162300    4.325600    0.000000    L3
Au    9.157200    4.325600    0.000000    L3
Au    6.659800    5.767500    0.000000    L3
Au    11.654600    5.767500    0.000000    L3
Au    9.157200    7.209400    0.000000    L3
Au    14.152000    7.209400    0.000000    L3
Au    3.329900    0.000000    2.354600    L3
Au    8.324700    0.000000    2.354600    L3
Au    5.827300    1.441900    2.354600    L3
Au    10.822100    1.441900    2.354600    L3
Au    8.324700    2.883800    2.354600    L3
Au    13.319500    2.883800    2.354600    L3
Au    5.827300    4.325600    2.354600    L3
Au    10.822100    4.325600    2.354600    L3
Au    8.324700    5.767500    2.354600    L3
Au    13.319500    5.767500    2.354600    L3
Au    10.822100    7.209400    2.354600    L3
Au    15.816900    7.209400    2.354600    L3
Au    0.000000    0.000000    4.70919594    L3
Au    4.994800    0.000000    4.70919594    L3
Au    2.497400    1.441900    4.70919594    L3
Au    7.492200    1.441900    4.70919594    L3
Au    4.994800    2.883800    4.70919594    L3
Au    9.989600    2.883800    4.70919594    L3
Au    2.497400    4.325600    4.70919594    L3
Au    7.492200    4.325600    4.70919594    L3
Au    4.994800    5.767500    4.70919594    L3
Au    9.989600    5.767500    4.70919594    L3
Au    7.492200    7.209400    4.70919594    L3
Au    12.487000    7.209400    4.70919594    L3
Au    1.664900    0.000000    7.063800    L2
Au    6.659800    0.000000    7.063800    L2
Au    4.162300    1.441900    7.063800    L2
Au    9.157200    1.441900    7.063800    L2
Au    6.659800    2.883800    7.063800    L2
Au    11.654600    2.883800    7.063800    L2
Au    4.162300    4.325600    7.063800    L2
Au    9.157200    4.325600    7.063800    L2
Au    6.659800    5.767500    7.063800    L2
Au    11.654600    5.767500    7.063800    L2
Au    9.157200    7.209400    7.063800    L2
Au    14.152000    7.209400    7.063800    L2
Au    3.329900    0.000000    9.418400    L2
Au    8.324700    0.000000    9.418400    L2
Au    5.827300    1.441900    9.418400    L2
Au    10.822100    1.441900    9.418400    L2
Au    8.324700    2.883800    9.418400    L2
Au    13.319500    2.883800    9.418400    L2
Au    5.827300    4.325600    9.418400    L2
Au    10.822100    4.325600    9.418400    L2
Au    8.324700    5.767500    9.418400    L2
Au    13.319500    5.767500    9.418400    L2
Au    10.822100    7.209400    9.418400    L2
Au    15.816900    7.209400    9.418400    L2
Au    0.000000    0.000000    11.7729959    L2
Au    4.994800    0.000000    11.7729959    L2
Au    2.497400    1.441900    11.7729959    L2
Au    7.492200    1.441900    11.7729959    L2
Au    4.994800    2.883800    11.7729959    L2
Au    9.989600    2.883800    11.7729959    L2
Au    2.497400    4.325600    11.7729959    L2
Au    7.492200    4.325600    11.7729959    L2
Au    4.994800    5.767500    11.7729959    L2
Au    9.989600    5.767500    11.7729959    L2
Au    7.492200    7.209400    11.7729959    L2
Au    12.487000    7.209400    11.7729959    L2
Au    1.664900    0.000000    14.127601    L1
Au    6.659800    0.000000    14.127601    L1
Au    4.162300    1.441900    14.127601    L1
Au    9.157200    1.441900    14.127601    L1
Au    6.659800    2.883800    14.127601    L1
Au    11.654600    2.883800    14.127601    L1
Au    4.162300    4.325600    14.127601    L1
Au    9.157200    4.325600    14.127601    L1
Au    6.659800    5.767500    14.127601    L1
Au    11.654600    5.767500    14.127601    L1
Au    9.157200    7.209400    14.127601    L1
Au    14.152000    7.209400    14.127601    L1
Au    3.329900    0.000000    16.482201    L1
Au    8.324700    0.000000    16.482201    L1
Au    5.827300    1.441900    16.482201    L1
Au    10.822100    1.441900    16.482201    L1
Au    8.324700    2.883800    16.482201    L1
Au    13.319500    2.883800    16.482201    L1
Au    5.827300    4.325600    16.482201    L1
Au    10.822100    4.325600    16.482201    L1
Au    8.324700    5.767500    16.482201    L1
Au    13.319500    5.767500    16.482201    L1
Au    10.822100    7.209400    16.482201    L1
Au    15.816900    7.209400    16.482201    L1
Au    0.000000    0.000000    18.836800    L1
Au    4.994800    0.000000    18.836800    L1
Au    2.497400    1.441900    18.836800    L1
Au    7.492200    1.441900    18.836800    L1
Au    4.994800    2.883800    18.836800    L1
Au    9.989600    2.883800    18.836800    L1
Au    2.497400    4.325600    18.836800    L1
Au    7.492200    4.325600    18.836800    L1
Au    4.994800    5.767500    18.836800    L1
Au    9.989600    5.767500    18.836800    L1
Au    7.492200    7.209400    18.836800    L1
Au    12.487000    7.209400    18.836800    L1
Au    1.6649000000    0.0000000000    21.1914    L0
Au    6.6598000000    0.0000000000    21.1914    L0
Au    4.1623000000    1.4419000000    21.1914    L0
Au    9.1572000000    1.4419000000    21.1914    L0
Au    6.6598000000    2.8838000000    21.1914    L0
Au    11.6546000000    2.8838000000    21.1914    L0
Au    4.1623000000    4.3256000000    21.1914    L0
Au    9.1572000000    4.3256000000    21.1914    L0
Au    6.6598000000    5.7675000000    21.1914    L0
Au    11.6546000000    5.7675000000    21.1914    L0
Au    9.1572000000    7.2094000000    21.1914    L0
Au    14.1520000000    7.2094000000    21.1914    L0
Au    3.3299000000    0.0000000000    23.546000000000003    L0
Au    8.3247000000    0.0000000000    23.546000000000003    L0
Au    5.8273000000    1.4419000000    23.546000000000003    L0
Au    10.8221000000    1.4419000000    23.546000000000003    L0
Au    8.3247000000    2.8838000000    23.546000000000003    L0
Au    13.3195000000    2.8838000000    23.546000000000003    L0
Au    5.8273000000    4.3256000000    23.546000000000003    L0
Au    10.8221000000    4.3256000000    23.546000000000003    L0
Au    8.3247000000    5.7675000000    23.546000000000003    L0
Au    13.3195000000    5.7675000000    23.546000000000003    L0
Au    10.8221000000    7.2094000000    23.546000000000003    L0
Au    15.8169000000    7.2094000000    23.546000000000003    L0
Au    0.0000000000    0.0000000000    25.9005    L0
Au    4.9948000000    0.0000000000    25.9005    L0
Au    2.4974000000    1.4419000000    25.9005    L0
Au    7.4922000000    1.4419000000    25.9005    L0
Au    4.9948000000    2.8838000000    25.9005    L0
Au    9.9896000000    2.8838000000    25.9005    L0
Au    2.4974000000    4.3256000000    25.9005    L0
Au    7.4922000000    4.3256000000    25.9005    L0
Au    4.9948000000    5.7675000000    25.9005    L0
Au    9.9896000000    5.7675000000    25.9005    L0
Au    7.4922000000    7.2094000000    25.9005    L0
Au    12.4870000000    7.2094000000    25.9005    L0
C    10.4395215743    2.3810209102    39.4187613607    S
C    10.1127545226    1.0276606313    39.0228526616    S
C    9.9321015619    1.0023237388    37.5866480001    S
C    10.1507615539    2.3723636984    37.0865305091    S
C    10.4615235956    3.2054311655    38.227318588100005    S
C    10.0127704334    4.5283357305    38.290514480300004    S
C    9.2038033050    5.0465694114    37.215933320800005    S
C    8.8887573509    4.2170495383    36.1303776207    S
C    9.3975277514    2.8748184489    36.0427394792    S
C    8.4798517160    2.0217096435    35.1679223319    S
C    8.2404082680    0.5211959366    35.711078063    S
C    8.9625412869    0.1969318701    37.0205615241    S
C    8.1062889797    -0.5686932896    37.8833498341    S
C    8.2829026383    -0.5773207487    39.274174551499996    S
C    9.3145821860    0.2386729021    39.8601314718    S
C    8.8117266818    0.7739440631    41.111136478000006    S
C    7.4585657970    0.2791044887    41.2969241571    S
C    7.1337361930    -0.5603355656    40.15805208570001    S
C    5.8471945860    -0.5420486348    39.6188451198    S
C    5.6623854885    -0.5425456098    38.1790853032    S
C    6.7713989365    -0.5503973156    37.3244756785    S
C    6.7932385681    0.2309813408    36.1187204455    S
C    5.7201940481    1.0504331046    35.8283072166    S
C    5.9413925029    2.4213022759    35.3277395768    S
C    7.2247099758    2.8966898592    35.150916961200004    S
C    7.5492768915    4.2305820332    35.5743557233    S
C    6.5728658333    5.0804598495    36.115824068    S
C    6.8992349666    5.9240495259    37.252995651800006    S
C    8.1862269254    5.9054709723    37.7920273455    S
C    8.3722685110    5.9108238256    39.2304028398    S
C    7.2664716679    5.9402566655    40.0831298726    S
C    5.9284018419    5.9544677338    39.5228830379    S
C    5.7504448878    5.9452080757    38.1352790516    S
C    4.7169175819    5.1188628455    37.5400247946    S
C    5.2285936619    4.5879465705    36.2909582224    S
C    4.9257363364    3.2717847167    35.9111262468    S
C    4.0854173769    2.4536880054    36.7640723804    S
C    4.5739395416    1.0895379496    36.7107983378    S
C    4.5359542999    0.2958810401    37.8653607532    S
C    4.0205489165    0.8326364263    39.1083608649    S
C    4.8291278275    0.3131336512    40.196931167900004    S
C    5.1382030394    1.1261639578    41.2925648479    S
C    6.4791278474    1.1100129202    41.8534275777    S
C    6.8159616752    2.4660464007    42.246822863700004    S
C    5.6836761011    3.3203473140    41.931672668900006    S
C    4.6482702560    2.4916569625    41.3409997439    S
C    3.8694957533    2.9907710035    40.2909230881    S
C    3.5564664789    2.1484417945    39.156896930200006    S
C    3.5844189009    2.9716163576    37.9614894042    S
C    3.9061967399    4.3282021415    38.3601319286    S
C    4.0869091508    4.3406660628    39.797452777800004    S
C    5.0811079201    5.1393490874    40.3717147174    S
C    5.8953660591    4.6195386100    41.45641450150001    S
C    7.2478170564    5.1161552226    41.2774188128    S
C    8.3402534851    4.2931338599    41.5746243991    S
C    8.1207476381    2.9419154977    42.0696107846    S
C    9.1331470295    2.0822429447    41.4901336713    S
C    9.9719528773    2.8982302449    40.6296577901    S
C    9.4865088647    4.2651339354    40.6895270894    S
C    9.5056662194    5.0609685448    39.5391498205    S
C    8.7011097708    -0.3519775378    34.5030977345    S
C    9.0258611245    1.7814018649    33.732162077    S
N    8.4347144515    0.5051597124    33.3563762996    S
H    8.1440541335    -1.2967617460    34.4388951855    S
H    9.7812692266    -0.5921048122    34.6164846351    S
H    10.1375684010    1.7321998176    33.7623330694    S
H    8.7354997661    2.5822054332    33.039840675    S
C    8.2525890502    0.8235890701    30.940423526700002    S
C    9.0255387262    1.7179561740    30.190251907000004    S
C    8.4372745653    2.5701556959    29.253729446100003    S
C    7.0488421810    2.5302344760    29.0430353974    S
C    6.8713290585    0.7646169051    30.694453544    S
C    6.2715601603    1.5945632704    29.7523579514    S
H    10.1043557496    1.7675887835    30.3519992823    S
H    6.2555195383    0.0693234941    31.2673301266    S
H    5.1973379423    1.5415213967    29.575231021600004    S
H    9.0473958818    3.2883927358    28.7047190058    S
S    6.2199290286    3.7775234910    28.0867267036    S
C    8.8554454196    -0.0095373893    32.050323131300004    S
H    9.9622057288    -0.0372698230    31.950825415300002    S
H    8.4984162559    -1.0484367990    31.974210611100002    S
Au    6.8159616752    2.4660464007    45.246822863700004    R0
Au    0.1561616751999999    -3.3014535993000003    47.6014258637    R0
Au    5.151061675199999    -3.3014535993000003    47.6014258637    R0
Au    2.6535616751999997    -1.8595535992999999    47.6014258637    R0
Au    7.648461675199999    -1.8595535992999999    47.6014258637    R0
Au    5.151061675199999    -0.41765359930000034    47.6014258637    R0
Au    10.145861675199999    -0.41765359930000034    47.6014258637    R0
Au    2.6535616751999997    1.0241464006999994    47.6014258637    R0
Au    7.648461675199999    1.0241464006999994    47.6014258637    R0
Au    5.151061675199999    2.4660464007    47.6014258637    R0
Au    10.145861675199999    2.4660464007    47.6014258637    R0
Au    7.648461675199999    3.9079464006999993    47.6014258637    R0
Au    12.643261675199998    3.9079464006999993    47.6014258637    R0
Au    1.8211616752    -3.3014535993000003    49.9560278637    R0
Au    6.8159616752    -3.3014535993000003    49.9560278637    R0
Au    4.3185616752    -1.8595535992999999    49.9560278637    R0
Au    9.3133616752    -1.8595535992999999    49.9560278637    R0
Au    6.8159616752    -0.41765359930000034    49.9560278637    R0
Au    11.810761675199998    -0.41765359930000034    49.9560278637    R0
Au    4.3185616752    1.0241464006999994    49.9560278637    R0
Au    9.3133616752    1.0241464006999994    49.9560278637    R0
Au    6.8159616752    2.4660464007    49.9560278637    R0
Au    11.810761675199998    2.4660464007    49.9560278637    R0
Au    9.3133616752    3.9079464006999993    49.9560278637    R0
Au    14.308161675200001    3.9079464006999993    49.9560278637    R0
Au    -1.5087383248000004    -3.3014535993000003    52.31042486370001    R0
Au    3.4860616751999993    -3.3014535993000003    52.3106238637    R0
Au    0.9886616751999995    -1.8595535992999999    52.3106238637    R0
Au    5.9834616752    -1.8595535992999999    52.3106238637    R0
Au    3.4860616751999993    -0.41765359930000034    52.3106238637    R0
Au    8.4808616752    -0.41765359930000034    52.3106238637    R0
Au    0.9886616751999995    1.0241464006999994    52.3106238637    R0
Au    5.9834616752    1.0241464006999994    52.3106238637    R0
Au    3.4860616751999993    2.4660464007    52.3106238637    R0
Au    8.4808616752    2.4660464007    52.3106238637    R0
Au    5.9834616752    3.9079464006999993    52.3106238637    R0
Au    10.978261675199999    3.9079464006999993    52.3106238637    R0
Au    0.1561616751999999    -3.3014535993000003    54.6651268637    R1
Au    5.151061675199999    -3.3014535993000003    54.6651268637    R1
Au    2.6535616751999997    -1.8595535992999999    54.6651268637    R1
Au    7.648461675199999    -1.8595535992999999    54.6651268637    R1
Au    5.151061675199999    -0.41765359930000034    54.6651268637    R1
Au    10.145861675199999    -0.41765359930000034    54.6651268637    R1
Au    2.6535616751999997    1.0241464006999994    54.6651268637    R1
Au    7.648461675199999    1.0241464006999994    54.6651268637    R1
Au    5.151061675199999    2.4660464007    54.6651268637    R1
Au    10.145861675199999    2.4660464007    54.6651268637    R1
Au    7.648461675199999    3.9079464006999993    54.6651268637    R1
Au    12.643261675199998    3.9079464006999993    54.6651268637    R1
Au    1.8211616752    -3.3014535993000003    57.0197258637    R1
Au    6.8159616752    -3.3014535993000003    57.0197258637    R1
Au    4.3185616752    -1.8595535992999999    57.0197258637    R1
Au    9.3133616752    -1.8595535992999999    57.0197258637    R1
Au    6.8159616752    -0.41765359930000034    57.0197258637    R1
Au    11.810761675199998    -0.41765359930000034    57.0197258637    R1
Au    4.3185616752    1.0241464006999994    57.0197258637    R1
Au    9.3133616752    1.0241464006999994    57.0197258637    R1
Au    6.8159616752    2.4660464007    57.0197258637    R1
Au    11.810761675199998    2.4660464007    57.0197258637    R1
Au    9.3133616752    3.9079464006999993    57.0197258637    R1
Au    14.308161675200001    3.9079464006999993    57.0197258637    R1
Au    -1.5087383248000004    -3.3014535993000003    59.37432086370001    R1
Au    3.4860616751999993    -3.3014535993000003    59.37432086370001    R1
Au    0.9886616751999995    -1.8595535992999999    59.37432086370001    R1
Au    5.9834616752    -1.8595535992999999    59.37432086370001    R1
Au    3.4860616751999993    -0.41765359930000034    59.37432086370001    R1
Au    8.4808616752    -0.41765359930000034    59.37432086370001    R1
Au    0.9886616751999995    1.0241464006999994    59.37432086370001    R1
Au    5.9834616752    1.0241464006999994    59.37432086370001    R1
Au    3.4860616751999993    2.4660464007    59.37432086370001    R1
Au    8.4808616752    2.4660464007    59.37432086370001    R1
Au    5.9834616752    3.9079464006999993    59.37432086370001    R1
Au    10.978261675199999    3.9079464006999993    59.37432086370001    R1
Au    0.1561616751999999    -3.3014535993000003    61.728925663700004    R2
Au    5.151061675199999    -3.3014535993000003    61.728925663700004    R2
Au    2.6535616751999997    -1.8595535992999999    61.728925663700004    R2
Au    7.648461675199999    -1.8595535992999999    61.728925663700004    R2
Au    5.151061675199999    -0.41765359930000034    61.728925663700004    R2
Au    10.145861675199999    -0.41765359930000034    61.728925663700004    R2
Au    2.6535616751999997    1.0241464006999994    61.728925663700004    R2
Au    7.648461675199999    1.0241464006999994    61.728925663700004    R2
Au    5.151061675199999    2.4660464007    61.728925663700004    R2
Au    10.145861675199999    2.4660464007    61.728925663700004    R2
Au    7.648461675199999    3.9079464006999993    61.728925663700004    R2
Au    12.643261675199998    3.9079464006999993    61.728925663700004    R2
Au    1.8211616752    -3.3014535993000003    64.0835251637    R2
Au    6.8159616752    -3.3014535993000003    64.0835251637    R2
Au    4.3185616752    -1.8595535992999999    64.0835251637    R2
Au    9.3133616752    -1.8595535992999999    64.0835251637    R2
Au    6.8159616752    -0.41765359930000034    64.0835251637    R2
Au    11.810761675199998    -0.41765359930000034    64.0835251637    R2
Au    4.3185616752    1.0241464006999994    64.0835251637    R2
Au    9.3133616752    1.0241464006999994    64.0835251637    R2
Au    6.8159616752    2.4660464007    64.0835251637    R2
Au    11.810761675199998    2.4660464007    64.0835251637    R2
Au    9.3133616752    3.9079464006999993    64.0835251637    R2
Au    14.308161675200001    3.9079464006999993    64.0835251637    R2
Au    -1.5087383248000004    -3.3014535993000003    66.4381321637    R2
Au    3.4860616751999993    -3.3014535993000003    66.4381321637    R2
Au    0.9886616751999995    -1.8595535992999999    66.4381321637    R2
Au    5.9834616752    -1.8595535992999999    66.4381321637    R2
Au    3.4860616751999993    -0.41765359930000034    66.4381321637    R2
Au    8.4808616752    -0.41765359930000034    66.4381321637    R2
Au    0.9886616751999995    1.0241464006999994    66.4381321637    R2
Au    5.9834616752    1.0241464006999994    66.4381321637    R2
Au    3.4860616751999993    2.4660464007    66.4381321637    R2
Au    8.4808616752    2.4660464007    66.4381321637    R2
Au    5.9834616752    3.9079464006999993    66.4381321637    R2
Au    10.978261675199999    3.9079464006999993    66.4381321637    R2
Au    0.1561616751999999    -3.3014535993000003    68.7927256637    R3
Au    5.151061675199999    -3.3014535993000003    68.7927256637    R3
Au    2.6535616751999997    -1.8595535992999999    68.7927256637    R3
Au    7.648461675199999    -1.8595535992999999    68.7927256637    R3
Au    5.151061675199999    -0.41765359930000034    68.7927256637    R3
Au    10.145861675199999    -0.41765359930000034    68.7927256637    R3
Au    2.6535616751999997    1.0241464006999994    68.7927256637    R3
Au    7.648461675199999    1.0241464006999994    68.7927256637    R3
Au    5.151061675199999    2.4660464007    68.7927256637    R3
Au    10.145861675199999    2.4660464007    68.7927256637    R3
Au    7.648461675199999    3.9079464006999993    68.7927256637    R3
Au    12.643261675199998    3.9079464006999993    68.7927256637    R3
Au    1.8211616752    -3.3014535993000003    71.1473251637    R3
Au    6.8159616752    -3.3014535993000003    71.1473251637    R3
Au    4.3185616752    -1.8595535992999999    71.1473251637    R3
Au    9.3133616752    -1.8595535992999999    71.1473251637    R3
Au    6.8159616752    -0.41765359930000034    71.1473251637    R3
Au    11.810761675199998    -0.41765359930000034    71.1473251637    R3
Au    4.3185616752    1.0241464006999994    71.1473251637    R3
Au    9.3133616752    1.0241464006999994    71.1473251637    R3
Au    6.8159616752    2.4660464007    71.1473251637    R3
Au    11.810761675199998    2.4660464007    71.1473251637    R3
Au    9.3133616752    3.9079464006999993    71.1473251637    R3
Au    14.308161675200001    3.9079464006999993    71.1473251637    R3
Au    -1.5087383248000004    -3.3014535993000003    73.5019321637    R3
Au    3.4860616751999993    -3.3014535993000003    73.5019321637    R3
Au    0.9886616751999995    -1.8595535992999999    73.5019321637    R3
Au    5.9834616752    -1.8595535992999999    73.5019321637    R3
Au    3.4860616751999993    -0.41765359930000034    73.5019321637    R3
Au    8.4808616752    -0.41765359930000034    73.5019321637    R3
Au    0.9886616751999995    1.0241464006999994    73.5019321637    R3
Au    5.9834616752    1.0241464006999994    73.5019321637    R3
Au    3.4860616751999993    2.4660464007    73.5019321637    R3
Au    8.4808616752    2.4660464007    73.5019321637    R3
Au    5.9834616752    3.9079464006999993    73.5019321637    R3
Au    10.978261675199999    3.9079464006999993    73.5019321637    R3
