334

Au      1.664900    0.000000    0.000000 L3
Au      6.659800    0.000000    0.000000 L3
Au      4.162300    1.441900    0.000000 L3
Au      9.157200    1.441900    0.000000 L3
Au      6.659800    2.883800    0.000000 L3
Au      11.654600    2.883800    0.000000 L3
Au      4.162300    4.325600    0.000000 L3
Au      9.157200    4.325600    0.000000 L3
Au      6.659800    5.767500    0.000000 L3
Au      11.654600    5.767500    0.000000 L3
Au      9.157200    7.209400    0.000000 L3
Au      14.152000    7.209400    0.000000 L3
Au      3.329900    0.000000    2.354600 L3
Au      8.324700    0.000000    2.354600 L3
Au      5.827300    1.441900    2.354600 L3
Au      10.822100    1.441900    2.354600 L3
Au      8.324700    2.883800    2.354600 L3
Au      13.319500    2.883800    2.354600 L3
Au      5.827300    4.325600    2.354600 L3
Au      10.822100    4.325600    2.354600 L3
Au      8.324700    5.767500    2.354600 L3
Au      13.319500    5.767500    2.354600 L3
Au      10.822100    7.209400    2.354600 L3
Au      15.816900    7.209400    2.354600 L3
Au      0.000000    0.000000    4.70919594 L3
Au      4.994800    0.000000    4.70919594 L3
Au      2.497400    1.441900    4.70919594 L3
Au      7.492200    1.441900    4.70919594 L3
Au      4.994800    2.883800    4.70919594 L3
Au      9.989600    2.883800    4.70919594 L3
Au      2.497400    4.325600    4.70919594 L3
Au      7.492200    4.325600    4.70919594 L3
Au      4.994800    5.767500    4.70919594 L3
Au      9.989600    5.767500    4.70919594 L3
Au      7.492200    7.209400    4.70919594 L3
Au      12.487000    7.209400    4.70919594 L3
Au      1.664900    0.000000    7.063800 L2
Au      6.659800    0.000000    7.063800 L2
Au      4.162300    1.441900    7.063800 L2
Au      9.157200    1.441900    7.063800 L2
Au      6.659800    2.883800    7.063800 L2
Au      11.654600    2.883800    7.063800 L2
Au      4.162300    4.325600    7.063800 L2
Au      9.157200    4.325600    7.063800 L2
Au      6.659800    5.767500    7.063800 L2
Au      11.654600    5.767500    7.063800 L2
Au      9.157200    7.209400    7.063800 L2
Au      14.152000    7.209400    7.063800 L2
Au      3.329900    0.000000    9.418400 L2
Au      8.324700    0.000000    9.418400 L2
Au      5.827300    1.441900    9.418400 L2
Au      10.822100    1.441900    9.418400 L2
Au      8.324700    2.883800    9.418400 L2
Au      13.319500    2.883800    9.418400 L2
Au      5.827300    4.325600    9.418400 L2
Au      10.822100    4.325600    9.418400 L2
Au      8.324700    5.767500    9.418400 L2
Au      13.319500    5.767500    9.418400 L2
Au      10.822100    7.209400    9.418400 L2
Au      15.816900    7.209400    9.418400 L2
Au      0.000000    0.000000    11.7729959 L2
Au      4.994800    0.000000    11.7729959 L2
Au      2.497400    1.441900    11.7729959 L2
Au      7.492200    1.441900    11.7729959 L2
Au      4.994800    2.883800    11.7729959 L2
Au      9.989600    2.883800    11.7729959 L2
Au      2.497400    4.325600    11.7729959 L2
Au      7.492200    4.325600    11.7729959 L2
Au      4.994800    5.767500    11.7729959 L2
Au      9.989600    5.767500    11.7729959 L2
Au      7.492200    7.209400    11.7729959 L2
Au      12.487000    7.209400    11.7729959 L2
Au      1.664900    0.000000    14.127601 L1
Au      6.659800    0.000000    14.127601 L1
Au      4.162300    1.441900    14.127601 L1
Au      9.157200    1.441900    14.127601 L1
Au      6.659800    2.883800    14.127601 L1
Au      11.654600    2.883800    14.127601 L1
Au      4.162300    4.325600    14.127601 L1
Au      9.157200    4.325600    14.127601 L1
Au      6.659800    5.767500    14.127601 L1
Au      11.654600    5.767500    14.127601 L1
Au      9.157200    7.209400    14.127601 L1
Au      14.152000    7.209400    14.127601 L1
Au      3.329900    0.000000    16.482201 L1
Au      8.324700    0.000000    16.482201 L1
Au      5.827300    1.441900    16.482201 L1
Au      10.822100    1.441900    16.482201 L1
Au      8.324700    2.883800    16.482201 L1
Au      13.319500    2.883800    16.482201 L1
Au      5.827300    4.325600    16.482201 L1
Au      10.822100    4.325600    16.482201 L1
Au      8.324700    5.767500    16.482201 L1
Au      13.319500    5.767500    16.482201 L1
Au      10.822100    7.209400    16.482201 L1
Au      15.816900    7.209400    16.482201 L1
Au      0.000000    0.000000    18.836800 L1
Au      4.994800    0.000000    18.836800 L1
Au      2.497400    1.441900    18.836800 L1
Au      7.492200    1.441900    18.836800 L1
Au      4.994800    2.883800    18.836800 L1
Au      9.989600    2.883800    18.836800 L1
Au      2.497400    4.325600    18.836800 L1
Au      7.492200    4.325600    18.836800 L1
Au      4.994800    5.767500    18.836800 L1
Au      9.989600    5.767500    18.836800 L1
Au      7.492200    7.209400    18.836800 L1
Au      12.487000    7.209400    18.836800 L1 
Au    1.6649000000    0.0000000000    21.1914    L0
Au    6.6598000000    0.0000000000    21.1914    L0
Au    4.1623000000    1.4419000000    21.1914    L0
Au    9.1572000000    1.4419000000    21.1914    L0
Au    6.6598000000    2.8838000000    21.1914    L0
Au    11.6546000000    2.8838000000    21.1914    L0
Au    4.1623000000    4.3256000000    21.1914    L0
Au    9.1572000000    4.3256000000    21.1914    L0
Au    6.6598000000    5.7675000000    21.1914    L0
Au    11.6546000000    5.7675000000    21.1914    L0
Au    9.1572000000    7.2094000000    21.1914    L0
Au    14.1520000000    7.2094000000    21.1914    L0
Au    3.3299000000    0.0000000000    23.546000000000003    L0
Au    8.3247000000    0.0000000000    23.546000000000003    L0
Au    5.8273000000    1.4419000000    23.546000000000003    L0
Au    10.8221000000    1.4419000000    23.546000000000003    L0
Au    8.3247000000    2.8838000000    23.546000000000003    L0
Au    13.3195000000    2.8838000000    23.546000000000003    L0
Au    5.8273000000    4.3256000000    23.546000000000003    L0
Au    10.8221000000    4.3256000000    23.546000000000003    L0
Au    8.3247000000    5.7675000000    23.546000000000003    L0
Au    13.3195000000    5.7675000000    23.546000000000003    L0
Au    10.8221000000    7.2094000000    23.546000000000003    L0
Au    15.8169000000    7.2094000000    23.546000000000003    L0
Au    0.0000000000    0.0000000000    25.9005    L0
Au    4.9948000000    0.0000000000    25.9005    L0
Au    2.4974000000    1.4419000000    25.9005    L0
Au    7.4922000000    1.4419000000    25.9005    L0
Au    4.9948000000    2.8838000000    25.9005    L0
Au    9.9896000000    2.8838000000    25.9005    L0
Au    2.4974000000    4.3256000000    25.9005    L0
Au    7.4922000000    4.3256000000    25.9005    L0
Au    4.9948000000    5.7675000000    25.9005    L0
Au    9.9896000000    5.7675000000    25.9005    L0
Au    7.4922000000    7.2094000000    25.9005    L0
Au    12.4870000000    7.2094000000    25.9005    L0
H    10.4475724838    3.7008488247    32.715855932400004    S
C    10.2637613281    4.3343032189    31.846164323300002    S
C    10.4709567608    5.7164758927    31.9403791814    S
C    10.2222938555    6.5121743759    30.8085219764    S
H    10.3736177524    7.5914571866    30.8663663704    S
C    9.7809941549    5.9449865016    29.6154820152    S
H    9.5970122902    6.5741830124    28.7430534177    S
C    9.5772992344    4.5573743056    29.5329922029    S
C    9.8242660069    3.7527575597    30.659421175300004    S
H    9.6685788723    2.6756050008    30.599021735900003    S
C    10.9637820507    6.3175535393    33.2323051246    S
N    10.0096429058    7.2776707236    33.832855429300004    S
H    11.8905407000    6.8839270017    33.046624614100004    S
H    11.2250822924    5.5027788137    33.931448155    S
C    10.4595774335    7.8324132440    35.0940574752    S
C    8.6650871517    6.7941872315    34.0830465112    S
C    7.6394746129    6.8239917112    41.8789451975    S
C    7.1699339488    5.5343555089    42.347995024    S
C    8.3257363803    4.7353841239    42.7049635174    S
C    9.5185121676    5.5309699366    42.458976730100005    S
C    9.0925983380    6.8208290473    41.942099468600006    S
C    9.8375934599    7.4499922779    40.9403925059    S
C    11.0413669722    6.8271001941    40.4213629504    S
C    11.4549033458    5.5863697458    40.9244220472    S
C    10.6731632709    4.9258477650    41.9568249013    S
C    10.6833983903    3.4975893562    41.6795357721    S
C    9.5372024482    2.7323254305    41.913567007500006    S
C    8.3355759404    3.3613733496    42.4376375234    S
C    7.1892659505    2.7357459432    41.8083829842    S
C    6.0702963590    3.5043812850    41.4667669907    S
C    6.0593980810    4.9282919377    41.7385062412    S
C    5.3837250452    5.5928054564    40.640496564900005    S
C    4.9787049686    4.5754339269    39.6832610063    S
C    5.3975130059    3.2816242988    40.1963140963    S
C    5.8655474992    2.3014018388    39.3177571456    S
C    7.0281193571    1.5018584883    39.6733545792    S
C    7.6772799728    1.7171495764    40.892642353    S
C    9.1290380523    1.7178951713    40.9564403321    S
C    9.8790381611    1.5127140743    39.794235927100004    S
C    11.0668419561    2.3126524044    39.54759689    S
C    11.4671924317    3.2835233489    40.4758200057    S
C    11.9432019872    4.5722358282    40.010670943    S
C    11.9983627351    4.8414246331    38.6372947313    S
C    11.5691320770    6.1273063758    38.1168678486    S
C    11.1115500482    7.1014170214    38.9981475262    S
C    9.9285955164    7.8868986986    38.6310919311    S
C    9.3005516559    7.6858299219    37.4117143264    S
C    9.9166324789    6.8857877176    36.2629975608    S
C    10.9186493442    5.9198408135    36.8280664743    S
C    10.8937957852    4.5397595197    36.588021203400004    S
C    11.5742134643    3.8428256839    37.685773654100004    S
C    11.1227009606    2.6043259524    38.130219491700004    S
C    9.9655169133    1.9712568281    37.494756781700005    S
C    9.2048006194    1.2954970886    38.5256310525    S
C    7.8042510362    1.2824777504    38.465558091700004    S
C    7.1249811005    1.9409272673    37.365942347200004    S
C    5.9277873580    2.5691889455    37.8902043406    S
C    5.5296077106    3.8187483277    37.3956902793    S
C    5.0502216426    4.8372305461    38.3118365754    S
C    5.5373275591    6.1247131852    37.8465922593    S
C    6.3145827852    5.9145940977    36.6455407213    S
C    6.3021953764    4.4763787223    36.3585366716    S
C    7.4585201413    3.8824876483    35.8635877093    S
C    7.8710677598    2.5867851157    36.3719766218    S
C    9.3127799514    2.6055386458    36.4432757469    S
C    9.7622447897    3.9192071934    35.966309104900006    S
C    8.6478305299    4.6783143142    35.5915196488    S
C    8.6300429721    6.1767842520    35.5566338455    S
C    7.4465254759    6.6748306386    36.3896561137    S
C    7.8679817886    7.6492437760    37.355048670900004    S
C    7.0993979899    7.8881830151    38.5182882813    S
C    5.9101083697    7.1096631957    38.76761152740001    S
C    5.8349005792    6.8381799423    40.1909808267    S
C    6.9850812540    7.4659869363    40.8223337453    S
C    7.7578070359    8.1182604768    39.7820531435    S
C    9.1557458766    8.0993114289    39.834054787    S
H    8.3460659775    6.0721405764    33.3234779922    S
H    7.9664323819    7.6445135671    34.0663361548    S
S    8.9631576579    3.7022202227    28.1035729902    S
H    10.0073112020    8.8252166862    35.2425023964    S
H    11.5503369805    7.9408114706    35.124019545500005    S
Au    8.324700    5.767500    47.70496    R0
Au    1.664900    0.000000    50.059563    R0
Au    6.659800    0.000000    50.059563    R0
Au    4.162300    1.441900    50.059563    R0
Au    9.157200    1.441900    50.059563    R0
Au    6.659800    2.883800    50.059563    R0
Au    11.654600    2.883800    50.059563    R0
Au    4.162300    4.325600    50.059563    R0
Au    9.157200    4.325600    50.059563    R0
Au    6.659800    5.767500    50.059563    R0
Au    11.654600    5.767500    50.059563    R0
Au    9.157200    7.209400    50.059563    R0
Au    14.152000    7.209400    50.059563    R0
Au    3.329900    0.000000    52.414165    R0
Au    8.324700    0.000000    52.414165    R0
Au    5.827300    1.441900    52.414165    R0
Au    10.822100    1.441900    52.414165    R0
Au    8.324700    2.883800    52.414165    R0
Au    13.319500    2.883800    52.414165    R0
Au    5.827300    4.325600    52.414165    R0
Au    10.822100    4.325600    52.414165    R0
Au    8.324700    5.767500    52.414165    R0
Au    13.319500    5.767500    52.414165    R0
Au    10.822100    7.209400    52.414165    R0
Au    15.816900    7.209400    52.414165    R0
Au    0.000000    0.000000    54.768562    R0
Au    4.994800    0.000000    54.768761    R0
Au    2.497400    1.441900    54.768761    R0
Au    7.492200    1.441900    54.768761    R0
Au    4.994800    2.883800    54.768761    R0
Au    9.989600    2.883800    54.768761    R0
Au    2.497400    4.325600    54.768761    R0
Au    7.492200    4.325600    54.768761    R0
Au    4.994800    5.767500    54.768761    R0
Au    9.989600    5.767500    54.768761    R0
Au    7.492200    7.209400    54.768761    R0
Au    12.487000    7.209400    54.768761    R0
Au    1.664900    0.000000    57.123264    R1
Au    6.659800    0.000000    57.123264    R1
Au    4.162300    1.441900    57.123264    R1
Au    9.157200    1.441900    57.123264    R1
Au    6.659800    2.883800    57.123264    R1
Au    11.654600    2.883800    57.123264    R1
Au    4.162300    4.325600    57.123264    R1
Au    9.157200    4.325600    57.123264    R1
Au    6.659800    5.767500    57.123264    R1
Au    11.654600    5.767500    57.123264    R1
Au    9.157200    7.209400    57.123264    R1
Au    14.152000    7.209400    57.123264    R1
Au    3.329900    0.000000    59.477863    R1
Au    8.324700    0.000000    59.477863    R1
Au    5.827300    1.441900    59.477863    R1
Au    10.822100    1.441900    59.477863    R1
Au    8.324700    2.883800    59.477863    R1
Au    13.319500    2.883800    59.477863    R1
Au    5.827300    4.325600    59.477863    R1
Au    10.822100    4.325600    59.477863    R1
Au    8.324700    5.767500    59.477863    R1
Au    13.319500    5.767500    59.477863    R1
Au    10.822100    7.209400    59.477863    R1
Au    15.816900    7.209400    59.477863    R1
Au    0.000000    0.000000    61.832458    R1
Au    4.994800    0.000000    61.832458    R1
Au    2.497400    1.441900    61.832458    R1
Au    7.492200    1.441900    61.832458    R1
Au    4.994800    2.883800    61.832458    R1
Au    9.989600    2.883800    61.832458    R1
Au    2.497400    4.325600    61.832458    R1
Au    7.492200    4.325600    61.832458    R1
Au    4.994800    5.767500    61.832458    R1
Au    9.989600    5.767500    61.832458    R1
Au    7.492200    7.209400    61.832458    R1
Au    12.487000    7.209400    61.832458    R1
Au    1.664900    0.000000    64.1870628    R2
Au    6.659800    0.000000    64.1870628    R2
Au    4.162300    1.441900    64.1870628    R2
Au    9.157200    1.441900    64.1870628    R2
Au    6.659800    2.883800    64.1870628    R2
Au    11.654600    2.883800    64.1870628    R2
Au    4.162300    4.325600    64.1870628    R2
Au    9.157200    4.325600    64.1870628    R2
Au    6.659800    5.767500    64.1870628    R2
Au    11.654600    5.767500    64.1870628    R2
Au    9.157200    7.209400    64.1870628    R2
Au    14.152000    7.209400    64.1870628    R2
Au    3.329900    0.000000    66.5416623    R2
Au    8.324700    0.000000    66.5416623    R2
Au    5.827300    1.441900    66.5416623    R2
Au    10.822100    1.441900    66.5416623    R2
Au    8.324700    2.883800    66.5416623    R2
Au    13.319500    2.883800    66.5416623    R2
Au    5.827300    4.325600    66.5416623    R2
Au    10.822100    4.325600    66.5416623    R2
Au    8.324700    5.767500    66.5416623    R2
Au    13.319500    5.767500    66.5416623    R2
Au    10.822100    7.209400    66.5416623    R2
Au    15.816900    7.209400    66.5416623    R2
Au    0.000000    0.000000    68.8962693    R2
Au    4.994800    0.000000    68.8962693    R2
Au    2.497400    1.441900    68.8962693    R2
Au    7.492200    1.441900    68.8962693    R2
Au    4.994800    2.883800    68.8962693    R2
Au    9.989600    2.883800    68.8962693    R2
Au    2.497400    4.325600    68.8962693    R2
Au    7.492200    4.325600    68.8962693    R2
Au    4.994800    5.767500    68.8962693    R2
Au    9.989600    5.767500    68.8962693    R2
Au    7.492200    7.209400    68.8962693    R2
Au    12.487000    7.209400    68.8962693    R2
Au    1.664900    0.000000    71.2508628    R3
Au    6.659800    0.000000    71.2508628    R3
Au    4.162300    1.441900    71.2508628    R3
Au    9.157200    1.441900    71.2508628    R3
Au    6.659800    2.883800    71.2508628    R3
Au    11.654600    2.883800    71.2508628    R3
Au    4.162300    4.325600    71.2508628    R3
Au    9.157200    4.325600    71.2508628    R3
Au    6.659800    5.767500    71.2508628    R3
Au    11.654600    5.767500    71.2508628    R3
Au    9.157200    7.209400    71.2508628    R3
Au    14.152000    7.209400    71.2508628    R3
Au    3.329900    0.000000    73.6054623    R3
Au    8.324700    0.000000    73.6054623    R3
Au    5.827300    1.441900    73.6054623    R3
Au    10.822100    1.441900    73.6054623    R3
Au    8.324700    2.883800    73.6054623    R3
Au    13.319500    2.883800    73.6054623    R3
Au    5.827300    4.325600    73.6054623    R3
Au    10.822100    4.325600    73.6054623    R3
Au    8.324700    5.767500    73.6054623    R3
Au    13.319500    5.767500    73.6054623    R3
Au    10.822100    7.209400    73.6054623    R3
Au    15.816900    7.209400    73.6054623    R3
Au    0.000000    0.000000    75.9600693    R3
Au    4.994800    0.000000    75.9600693    R3
Au    2.497400    1.441900    75.9600693    R3
Au    7.492200    1.441900    75.9600693    R3
Au    4.994800    2.883800    75.9600693    R3
Au    9.989600    2.883800    75.9600693    R3
Au    2.497400    4.325600    75.9600693    R3
Au    7.492200    4.325600    75.9600693    R3
Au    4.994800    5.767500    75.9600693    R3
Au    9.989600    5.767500    75.9600693    R3
Au    7.492200    7.209400    75.9600693    R3
Au    12.487000    7.209400    75.9600693    R3
