334

Au      1.664900    0.000000    0.000000 L3
Au      6.659800    0.000000    0.000000 L3
Au      4.162300    1.441900    0.000000 L3
Au      9.157200    1.441900    0.000000 L3
Au      6.659800    2.883800    0.000000 L3
Au      11.654600    2.883800    0.000000 L3
Au      4.162300    4.325600    0.000000 L3
Au      9.157200    4.325600    0.000000 L3
Au      6.659800    5.767500    0.000000 L3
Au      11.654600    5.767500    0.000000 L3
Au      9.157200    7.209400    0.000000 L3
Au      14.152000    7.209400    0.000000 L3
Au      3.329900    0.000000    2.354600 L3
Au      8.324700    0.000000    2.354600 L3
Au      5.827300    1.441900    2.354600 L3
Au      10.822100    1.441900    2.354600 L3
Au      8.324700    2.883800    2.354600 L3
Au      13.319500    2.883800    2.354600 L3
Au      5.827300    4.325600    2.354600 L3
Au      10.822100    4.325600    2.354600 L3
Au      8.324700    5.767500    2.354600 L3
Au      13.319500    5.767500    2.354600 L3
Au      10.822100    7.209400    2.354600 L3
Au      15.816900    7.209400    2.354600 L3
Au      0.000000    0.000000    4.70919594 L3
Au      4.994800    0.000000    4.70919594 L3
Au      2.497400    1.441900    4.70919594 L3
Au      7.492200    1.441900    4.70919594 L3
Au      4.994800    2.883800    4.70919594 L3
Au      9.989600    2.883800    4.70919594 L3
Au      2.497400    4.325600    4.70919594 L3
Au      7.492200    4.325600    4.70919594 L3
Au      4.994800    5.767500    4.70919594 L3
Au      9.989600    5.767500    4.70919594 L3
Au      7.492200    7.209400    4.70919594 L3
Au      12.487000    7.209400    4.70919594 L3
Au      1.664900    0.000000    7.063800 L2
Au      6.659800    0.000000    7.063800 L2
Au      4.162300    1.441900    7.063800 L2
Au      9.157200    1.441900    7.063800 L2
Au      6.659800    2.883800    7.063800 L2
Au      11.654600    2.883800    7.063800 L2
Au      4.162300    4.325600    7.063800 L2
Au      9.157200    4.325600    7.063800 L2
Au      6.659800    5.767500    7.063800 L2
Au      11.654600    5.767500    7.063800 L2
Au      9.157200    7.209400    7.063800 L2
Au      14.152000    7.209400    7.063800 L2
Au      3.329900    0.000000    9.418400 L2
Au      8.324700    0.000000    9.418400 L2
Au      5.827300    1.441900    9.418400 L2
Au      10.822100    1.441900    9.418400 L2
Au      8.324700    2.883800    9.418400 L2
Au      13.319500    2.883800    9.418400 L2
Au      5.827300    4.325600    9.418400 L2
Au      10.822100    4.325600    9.418400 L2
Au      8.324700    5.767500    9.418400 L2
Au      13.319500    5.767500    9.418400 L2
Au      10.822100    7.209400    9.418400 L2
Au      15.816900    7.209400    9.418400 L2
Au      0.000000    0.000000    11.7729959 L2
Au      4.994800    0.000000    11.7729959 L2
Au      2.497400    1.441900    11.7729959 L2
Au      7.492200    1.441900    11.7729959 L2
Au      4.994800    2.883800    11.7729959 L2
Au      9.989600    2.883800    11.7729959 L2
Au      2.497400    4.325600    11.7729959 L2
Au      7.492200    4.325600    11.7729959 L2
Au      4.994800    5.767500    11.7729959 L2
Au      9.989600    5.767500    11.7729959 L2
Au      7.492200    7.209400    11.7729959 L2
Au      12.487000    7.209400    11.7729959 L2
Au      1.664900    0.000000    14.127601 L1
Au      6.659800    0.000000    14.127601 L1
Au      4.162300    1.441900    14.127601 L1
Au      9.157200    1.441900    14.127601 L1
Au      6.659800    2.883800    14.127601 L1
Au      11.654600    2.883800    14.127601 L1
Au      4.162300    4.325600    14.127601 L1
Au      9.157200    4.325600    14.127601 L1
Au      6.659800    5.767500    14.127601 L1
Au      11.654600    5.767500    14.127601 L1
Au      9.157200    7.209400    14.127601 L1
Au      14.152000    7.209400    14.127601 L1
Au      3.329900    0.000000    16.482201 L1
Au      8.324700    0.000000    16.482201 L1
Au      5.827300    1.441900    16.482201 L1
Au      10.822100    1.441900    16.482201 L1
Au      8.324700    2.883800    16.482201 L1
Au      13.319500    2.883800    16.482201 L1
Au      5.827300    4.325600    16.482201 L1
Au      10.822100    4.325600    16.482201 L1
Au      8.324700    5.767500    16.482201 L1
Au      13.319500    5.767500    16.482201 L1
Au      10.822100    7.209400    16.482201 L1
Au      15.816900    7.209400    16.482201 L1
Au      0.000000    0.000000    18.836800 L1
Au      4.994800    0.000000    18.836800 L1
Au      2.497400    1.441900    18.836800 L1
Au      7.492200    1.441900    18.836800 L1
Au      4.994800    2.883800    18.836800 L1
Au      9.989600    2.883800    18.836800 L1
Au      2.497400    4.325600    18.836800 L1
Au      7.492200    4.325600    18.836800 L1
Au      4.994800    5.767500    18.836800 L1
Au      9.989600    5.767500    18.836800 L1
Au      7.492200    7.209400    18.836800 L1
Au      12.487000    7.209400    18.836800 L1 
Au    1.6649000000    0.0000000000    21.1914    L0
Au    6.6598000000    0.0000000000    21.1914    L0
Au    4.1623000000    1.4419000000    21.1914    L0
Au    9.1572000000    1.4419000000    21.1914    L0
Au    6.6598000000    2.8838000000    21.1914    L0
Au    11.6546000000    2.8838000000    21.1914    L0
Au    4.1623000000    4.3256000000    21.1914    L0
Au    9.1572000000    4.3256000000    21.1914    L0
Au    6.6598000000    5.7675000000    21.1914    L0
Au    11.6546000000    5.7675000000    21.1914    L0
Au    9.1572000000    7.2094000000    21.1914    L0
Au    14.1520000000    7.2094000000    21.1914    L0
Au    3.3299000000    0.0000000000    23.546000000000003    L0
Au    8.3247000000    0.0000000000    23.546000000000003    L0
Au    5.8273000000    1.4419000000    23.546000000000003    L0
Au    10.8221000000    1.4419000000    23.546000000000003    L0
Au    8.3247000000    2.8838000000    23.546000000000003    L0
Au    13.3195000000    2.8838000000    23.546000000000003    L0
Au    5.8273000000    4.3256000000    23.546000000000003    L0
Au    10.8221000000    4.3256000000    23.546000000000003    L0
Au    8.3247000000    5.7675000000    23.546000000000003    L0
Au    13.3195000000    5.7675000000    23.546000000000003    L0
Au    10.8221000000    7.2094000000    23.546000000000003    L0
Au    15.8169000000    7.2094000000    23.546000000000003    L0
Au    0.0000000000    0.0000000000    25.9005    L0
Au    4.9948000000    0.0000000000    25.9005    L0
Au    2.4974000000    1.4419000000    25.9005    L0
Au    7.4922000000    1.4419000000    25.9005    L0
Au    4.9948000000    2.8838000000    25.9005    L0
Au    9.9896000000    2.8838000000    25.9005    L0
Au    2.4974000000    4.3256000000    25.9005    L0
Au    7.4922000000    4.3256000000    25.9005    L0
Au    4.9948000000    5.7675000000    25.9005    L0
Au    9.9896000000    5.7675000000    25.9005    L0
Au    7.4922000000    7.2094000000    25.9005    L0
Au    12.4870000000    7.2094000000    25.9005    L0
H    3.9669229784    0.6200239724    30.4167457116    S
C    4.3490659054    1.5822144739    30.070636485    S
C    3.6440347400    2.7554008118    30.3717706038    S
C    4.1569128279    3.9809496802    29.919743000100002    S
H    3.6197561867    4.9023913252    30.147658497900004    S
C    5.3443055268    4.0346506430    29.193194355000003    S
H    5.7359993582    4.9934052056    28.8519751291    S
C    6.0436485017    2.8507552874    28.889580159700003    S
C    5.5307970519    1.6190490664    29.332399906600003    S
H    6.0650227261    0.6972062000    29.1032139361    S
C    2.3397909176    2.6779478765    31.126194339    S
N    2.2086778620    3.6993829085    32.1846898134    S
H    1.5074488162    2.8514472014    30.423471322700003    S
H    2.2099421494    1.6524737168    31.5152731601    S
C    0.9323837281    3.6599705296    32.871460441400004    S
C    3.2083886811    3.6652961228    33.2387799361    S
C    -0.5531222437    1.6074474804    39.8455181832    S
C    0.1006082503    0.4835315814    40.4884935674    S
C    -0.5091413081    -0.7347165046    39.99334227280001    S
C    -1.5450595058    -0.3669602104    39.0409683626    S
C    -1.5668676918    1.0816906361    38.945941302600005    S
C    -1.7888693859    1.6916044716    37.7080348769    S
C    -2.0142358992    0.8908658537    36.5197501416    S
C    -2.0013686145    -0.5037880843    36.6130248112    S
C    -1.7520844200    -1.1394940562    37.8960491946    S
C    -0.9315648564    -2.3113121978    37.656136316    S
C    0.0644236828    -2.6669603647    38.5681300471    S
C    0.2805215931    -1.8667468661    39.761190164    S
C    1.7057414618    -1.8257293240    40.0204036026    S
C    2.2966269210    -0.6518488269    40.5030070709    S
C    1.4823419190    0.5245402061    40.738406701100004    S
C    2.2529604785    1.6915033247    40.354404196900006    S
C    3.5473600647    1.2340583496    39.874463710300006    S
C    3.5783468005    -0.2153572464    39.9724361039    S
C    4.2175761911    -0.9648241796    38.9816537927    S
C    3.6031839487    -2.1824298083    38.4808531015    S
C    2.3730866618    -2.6040026007    38.989855988    S
C    1.3568617057    -3.1224630196    38.0910170505    S
C    1.6073259618    -3.1971136467    36.7172870189    S
C    0.5741552786    -2.8226885642    35.7694785107    S
C    -0.6767910537    -2.3937954913    36.2301187643    S
C    -1.3393879646    -1.2797068532    35.5847213407    S
C    -0.7242169933    -0.6311139268    34.5063215506    S
C    -0.7400145191    0.8175848849    34.409777818600006    S
C    -1.3844043688    1.5568793002    35.3963700173    S
C    -0.7432654774    2.7726366919    35.901940885200005    S
C    0.4664521309    3.1986565462    35.38003024    S
C    1.0763389031    2.6426696746    34.0936351575    S
C    0.5300218911    1.2645692327    33.851679534700004    S
C    1.3298192249    0.1297557752    33.664210320100004    S
C    0.5712835361    -1.0672345680    34.043570738    S
C    1.2044214025    -2.1437044207    34.6583323415    S
C    2.6439296463    -2.1030857609    34.918796171800004    S
C    2.8846334151    -2.7557378698    36.1883189818    S
C    3.8665350993    -2.2614382936    37.0551024864    S
C    4.6427626839    -1.1023639008    36.6722483801    S
C    4.8580983265    -0.3007475920    37.8603993534    S
C    4.8249032935    1.0935010730    37.7632600585    S
C    4.1538194436    1.8694271390    38.7873384152    S
C    3.4847939158    2.9786768463    38.1343151577    S
C    3.7396517380    2.9008233638    36.7147677011    S
C    4.5862702927    1.7312406451    36.4823231745    S
C    4.3701350731    0.9653900630    35.342201228200004    S
C    4.4085783743    -0.4809866719    35.4394732194    S
C    3.3872411616    -0.9862709177    34.5537972542    S
C    2.7396935379    0.1682587048    33.919340447    S
C    3.3496389458    1.3416095639    34.373941708100006    S
C    2.6801624647    2.6825386450    34.381078231000004    S
C    2.7706088537    3.2670494807    35.7933130612    S
C    1.4828313227    3.6783551170    36.2688454835    S
C    1.2290336224    3.7869218772    37.6565200161    S
C    2.2513902977    3.4331405717    38.60818547    S
C    1.6206506983    2.7757855879    39.736494956    S
C    0.1912223985    2.7326153183    39.4771418857    S
C    -0.0411414205    3.3635386340    38.192540383700006    S
C    -1.0028254321    2.8457028026    37.3217682594    S
H    4.1891158988    3.3622115410    32.8554545149    S
H    3.3044947289    4.6690743123    33.6787761169    S
S    7.6363028839    2.9064189831    28.100459095300003    S
H    0.7121338871    4.6520907622    33.294829336700005    S
H    0.1154160695    3.3819392002    32.1950962278    S
Au    8.324700    5.767500    43.73841    R0
Au    1.664900    0.000000    46.093013    R0
Au    6.659800    0.000000    46.093013    R0
Au    4.162300    1.441900    46.093013    R0
Au    9.157200    1.441900    46.093013    R0
Au    6.659800    2.883800    46.093013    R0
Au    11.654600    2.883800    46.093013    R0
Au    4.162300    4.325600    46.093013    R0
Au    9.157200    4.325600    46.093013    R0
Au    6.659800    5.767500    46.093013    R0
Au    11.654600    5.767500    46.093013    R0
Au    9.157200    7.209400    46.093013    R0
Au    14.152000    7.209400    46.093013    R0
Au    3.329900    0.000000    48.447615    R0
Au    8.324700    0.000000    48.447615    R0
Au    5.827300    1.441900    48.447615    R0
Au    10.822100    1.441900    48.447615    R0
Au    8.324700    2.883800    48.447615    R0
Au    13.319500    2.883800    48.447615    R0
Au    5.827300    4.325600    48.447615    R0
Au    10.822100    4.325600    48.447615    R0
Au    8.324700    5.767500    48.447615    R0
Au    13.319500    5.767500    48.447615    R0
Au    10.822100    7.209400    48.447615    R0
Au    15.816900    7.209400    48.447615    R0
Au    0.000000    0.000000    50.802012000000005    R0
Au    4.994800    0.000000    50.802211    R0
Au    2.497400    1.441900    50.802211    R0
Au    7.492200    1.441900    50.802211    R0
Au    4.994800    2.883800    50.802211    R0
Au    9.989600    2.883800    50.802211    R0
Au    2.497400    4.325600    50.802211    R0
Au    7.492200    4.325600    50.802211    R0
Au    4.994800    5.767500    50.802211    R0
Au    9.989600    5.767500    50.802211    R0
Au    7.492200    7.209400    50.802211    R0
Au    12.487000    7.209400    50.802211    R0
Au    1.664900    0.000000    53.156714    R1
Au    6.659800    0.000000    53.156714    R1
Au    4.162300    1.441900    53.156714    R1
Au    9.157200    1.441900    53.156714    R1
Au    6.659800    2.883800    53.156714    R1
Au    11.654600    2.883800    53.156714    R1
Au    4.162300    4.325600    53.156714    R1
Au    9.157200    4.325600    53.156714    R1
Au    6.659800    5.767500    53.156714    R1
Au    11.654600    5.767500    53.156714    R1
Au    9.157200    7.209400    53.156714    R1
Au    14.152000    7.209400    53.156714    R1
Au    3.329900    0.000000    55.511313    R1
Au    8.324700    0.000000    55.511313    R1
Au    5.827300    1.441900    55.511313    R1
Au    10.822100    1.441900    55.511313    R1
Au    8.324700    2.883800    55.511313    R1
Au    13.319500    2.883800    55.511313    R1
Au    5.827300    4.325600    55.511313    R1
Au    10.822100    4.325600    55.511313    R1
Au    8.324700    5.767500    55.511313    R1
Au    13.319500    5.767500    55.511313    R1
Au    10.822100    7.209400    55.511313    R1
Au    15.816900    7.209400    55.511313    R1
Au    0.000000    0.000000    57.865908000000005    R1
Au    4.994800    0.000000    57.865908000000005    R1
Au    2.497400    1.441900    57.865908000000005    R1
Au    7.492200    1.441900    57.865908000000005    R1
Au    4.994800    2.883800    57.865908000000005    R1
Au    9.989600    2.883800    57.865908000000005    R1
Au    2.497400    4.325600    57.865908000000005    R1
Au    7.492200    4.325600    57.865908000000005    R1
Au    4.994800    5.767500    57.865908000000005    R1
Au    9.989600    5.767500    57.865908000000005    R1
Au    7.492200    7.209400    57.865908000000005    R1
Au    12.487000    7.209400    57.865908000000005    R1
Au    1.664900    0.000000    60.2205128    R2
Au    6.659800    0.000000    60.2205128    R2
Au    4.162300    1.441900    60.2205128    R2
Au    9.157200    1.441900    60.2205128    R2
Au    6.659800    2.883800    60.2205128    R2
Au    11.654600    2.883800    60.2205128    R2
Au    4.162300    4.325600    60.2205128    R2
Au    9.157200    4.325600    60.2205128    R2
Au    6.659800    5.767500    60.2205128    R2
Au    11.654600    5.767500    60.2205128    R2
Au    9.157200    7.209400    60.2205128    R2
Au    14.152000    7.209400    60.2205128    R2
Au    3.329900    0.000000    62.5751123    R2
Au    8.324700    0.000000    62.5751123    R2
Au    5.827300    1.441900    62.5751123    R2
Au    10.822100    1.441900    62.5751123    R2
Au    8.324700    2.883800    62.5751123    R2
Au    13.319500    2.883800    62.5751123    R2
Au    5.827300    4.325600    62.5751123    R2
Au    10.822100    4.325600    62.5751123    R2
Au    8.324700    5.767500    62.5751123    R2
Au    13.319500    5.767500    62.5751123    R2
Au    10.822100    7.209400    62.5751123    R2
Au    15.816900    7.209400    62.5751123    R2
Au    0.000000    0.000000    64.9297193    R2
Au    4.994800    0.000000    64.9297193    R2
Au    2.497400    1.441900    64.9297193    R2
Au    7.492200    1.441900    64.9297193    R2
Au    4.994800    2.883800    64.9297193    R2
Au    9.989600    2.883800    64.9297193    R2
Au    2.497400    4.325600    64.9297193    R2
Au    7.492200    4.325600    64.9297193    R2
Au    4.994800    5.767500    64.9297193    R2
Au    9.989600    5.767500    64.9297193    R2
Au    7.492200    7.209400    64.9297193    R2
Au    12.487000    7.209400    64.9297193    R2
Au    1.664900    0.000000    67.2843128    R3
Au    6.659800    0.000000    67.2843128    R3
Au    4.162300    1.441900    67.2843128    R3
Au    9.157200    1.441900    67.2843128    R3
Au    6.659800    2.883800    67.2843128    R3
Au    11.654600    2.883800    67.2843128    R3
Au    4.162300    4.325600    67.2843128    R3
Au    9.157200    4.325600    67.2843128    R3
Au    6.659800    5.767500    67.2843128    R3
Au    11.654600    5.767500    67.2843128    R3
Au    9.157200    7.209400    67.2843128    R3
Au    14.152000    7.209400    67.2843128    R3
Au    3.329900    0.000000    69.6389123    R3
Au    8.324700    0.000000    69.6389123    R3
Au    5.827300    1.441900    69.6389123    R3
Au    10.822100    1.441900    69.6389123    R3
Au    8.324700    2.883800    69.6389123    R3
Au    13.319500    2.883800    69.6389123    R3
Au    5.827300    4.325600    69.6389123    R3
Au    10.822100    4.325600    69.6389123    R3
Au    8.324700    5.767500    69.6389123    R3
Au    13.319500    5.767500    69.6389123    R3
Au    10.822100    7.209400    69.6389123    R3
Au    15.816900    7.209400    69.6389123    R3
Au    0.000000    0.000000    71.9935193    R3
Au    4.994800    0.000000    71.9935193    R3
Au    2.497400    1.441900    71.9935193    R3
Au    7.492200    1.441900    71.9935193    R3
Au    4.994800    2.883800    71.9935193    R3
Au    9.989600    2.883800    71.9935193    R3
Au    2.497400    4.325600    71.9935193    R3
Au    7.492200    4.325600    71.9935193    R3
Au    4.994800    5.767500    71.9935193    R3
Au    9.989600    5.767500    71.9935193    R3
Au    7.492200    7.209400    71.9935193    R3
Au    12.487000    7.209400    71.9935193    R3

