334

Au    1.664900    0.000000    0.000000    L3
Au    6.659800    0.000000    0.000000    L3
Au    4.162300    1.441900    0.000000    L3
Au    9.157200    1.441900    0.000000    L3
Au    6.659800    2.883800    0.000000    L3
Au    11.654600    2.883800    0.000000    L3
Au    4.162300    4.325600    0.000000    L3
Au    9.157200    4.325600    0.000000    L3
Au    6.659800    5.767500    0.000000    L3
Au    11.654600    5.767500    0.000000    L3
Au    9.157200    7.209400    0.000000    L3
Au    14.152000    7.209400    0.000000    L3
Au    3.329900    0.000000    2.354600    L3
Au    8.324700    0.000000    2.354600    L3
Au    5.827300    1.441900    2.354600    L3
Au    10.822100    1.441900    2.354600    L3
Au    8.324700    2.883800    2.354600    L3
Au    13.319500    2.883800    2.354600    L3
Au    5.827300    4.325600    2.354600    L3
Au    10.822100    4.325600    2.354600    L3
Au    8.324700    5.767500    2.354600    L3
Au    13.319500    5.767500    2.354600    L3
Au    10.822100    7.209400    2.354600    L3
Au    15.816900    7.209400    2.354600    L3
Au    0.000000    0.000000    4.70919594    L3
Au    4.994800    0.000000    4.70919594    L3
Au    2.497400    1.441900    4.70919594    L3
Au    7.492200    1.441900    4.70919594    L3
Au    4.994800    2.883800    4.70919594    L3
Au    9.989600    2.883800    4.70919594    L3
Au    2.497400    4.325600    4.70919594    L3
Au    7.492200    4.325600    4.70919594    L3
Au    4.994800    5.767500    4.70919594    L3
Au    9.989600    5.767500    4.70919594    L3
Au    7.492200    7.209400    4.70919594    L3
Au    12.487000    7.209400    4.70919594    L3
Au    1.664900    0.000000    7.063800    L2
Au    6.659800    0.000000    7.063800    L2
Au    4.162300    1.441900    7.063800    L2
Au    9.157200    1.441900    7.063800    L2
Au    6.659800    2.883800    7.063800    L2
Au    11.654600    2.883800    7.063800    L2
Au    4.162300    4.325600    7.063800    L2
Au    9.157200    4.325600    7.063800    L2
Au    6.659800    5.767500    7.063800    L2
Au    11.654600    5.767500    7.063800    L2
Au    9.157200    7.209400    7.063800    L2
Au    14.152000    7.209400    7.063800    L2
Au    3.329900    0.000000    9.418400    L2
Au    8.324700    0.000000    9.418400    L2
Au    5.827300    1.441900    9.418400    L2
Au    10.822100    1.441900    9.418400    L2
Au    8.324700    2.883800    9.418400    L2
Au    13.319500    2.883800    9.418400    L2
Au    5.827300    4.325600    9.418400    L2
Au    10.822100    4.325600    9.418400    L2
Au    8.324700    5.767500    9.418400    L2
Au    13.319500    5.767500    9.418400    L2
Au    10.822100    7.209400    9.418400    L2
Au    15.816900    7.209400    9.418400    L2
Au    0.000000    0.000000    11.7729959    L2
Au    4.994800    0.000000    11.7729959    L2
Au    2.497400    1.441900    11.7729959    L2
Au    7.492200    1.441900    11.7729959    L2
Au    4.994800    2.883800    11.7729959    L2
Au    9.989600    2.883800    11.7729959    L2
Au    2.497400    4.325600    11.7729959    L2
Au    7.492200    4.325600    11.7729959    L2
Au    4.994800    5.767500    11.7729959    L2
Au    9.989600    5.767500    11.7729959    L2
Au    7.492200    7.209400    11.7729959    L2
Au    12.487000    7.209400    11.7729959    L2
Au    1.664900    0.000000    14.127601    L1
Au    6.659800    0.000000    14.127601    L1
Au    4.162300    1.441900    14.127601    L1
Au    9.157200    1.441900    14.127601    L1
Au    6.659800    2.883800    14.127601    L1
Au    11.654600    2.883800    14.127601    L1
Au    4.162300    4.325600    14.127601    L1
Au    9.157200    4.325600    14.127601    L1
Au    6.659800    5.767500    14.127601    L1
Au    11.654600    5.767500    14.127601    L1
Au    9.157200    7.209400    14.127601    L1
Au    14.152000    7.209400    14.127601    L1
Au    3.329900    0.000000    16.482201    L1
Au    8.324700    0.000000    16.482201    L1
Au    5.827300    1.441900    16.482201    L1
Au    10.822100    1.441900    16.482201    L1
Au    8.324700    2.883800    16.482201    L1
Au    13.319500    2.883800    16.482201    L1
Au    5.827300    4.325600    16.482201    L1
Au    10.822100    4.325600    16.482201    L1
Au    8.324700    5.767500    16.482201    L1
Au    13.319500    5.767500    16.482201    L1
Au    10.822100    7.209400    16.482201    L1
Au    15.816900    7.209400    16.482201    L1
Au    0.000000    0.000000    18.836800    L1
Au    4.994800    0.000000    18.836800    L1
Au    2.497400    1.441900    18.836800    L1
Au    7.492200    1.441900    18.836800    L1
Au    4.994800    2.883800    18.836800    L1
Au    9.989600    2.883800    18.836800    L1
Au    2.497400    4.325600    18.836800    L1
Au    7.492200    4.325600    18.836800    L1
Au    4.994800    5.767500    18.836800    L1
Au    9.989600    5.767500    18.836800    L1
Au    7.492200    7.209400    18.836800    L1
Au    12.487000    7.209400    18.836800    L1
Au    1.6649000000    0.0000000000    21.1914    L0
Au    6.6598000000    0.0000000000    21.1914    L0
Au    4.1623000000    1.4419000000    21.1914    L0
Au    9.1572000000    1.4419000000    21.1914    L0
Au    6.6598000000    2.8838000000    21.1914    L0
Au    11.6546000000    2.8838000000    21.1914    L0
Au    4.1623000000    4.3256000000    21.1914    L0
Au    9.1572000000    4.3256000000    21.1914    L0
Au    6.6598000000    5.7675000000    21.1914    L0
Au    11.6546000000    5.7675000000    21.1914    L0
Au    9.1572000000    7.2094000000    21.1914    L0
Au    14.1520000000    7.2094000000    21.1914    L0
Au    3.3299000000    0.0000000000    23.546000000000003    L0
Au    8.3247000000    0.0000000000    23.546000000000003    L0
Au    5.8273000000    1.4419000000    23.546000000000003    L0
Au    10.8221000000    1.4419000000    23.546000000000003    L0
Au    8.3247000000    2.8838000000    23.546000000000003    L0
Au    13.3195000000    2.8838000000    23.546000000000003    L0
Au    5.8273000000    4.3256000000    23.546000000000003    L0
Au    10.8221000000    4.3256000000    23.546000000000003    L0
Au    8.3247000000    5.7675000000    23.546000000000003    L0
Au    13.3195000000    5.7675000000    23.546000000000003    L0
Au    10.8221000000    7.2094000000    23.546000000000003    L0
Au    15.8169000000    7.2094000000    23.546000000000003    L0
Au    0.0000000000    0.0000000000    25.9005    L0
Au    4.9948000000    0.0000000000    25.9005    L0
Au    2.4974000000    1.4419000000    25.9005    L0
Au    7.4922000000    1.4419000000    25.9005    L0
Au    4.9948000000    2.8838000000    25.9005    L0
Au    9.9896000000    2.8838000000    25.9005    L0
Au    2.4974000000    4.3256000000    25.9005    L0
Au    7.4922000000    4.3256000000    25.9005    L0
Au    4.9948000000    5.7675000000    25.9005    L0
Au    9.9896000000    5.7675000000    25.9005    L0
Au    7.4922000000    7.2094000000    25.9005    L0
Au    12.4870000000    7.2094000000    25.9005    L0
C    9.746738185799998    1.3591402084    39.3685484583    S
C    9.655255513500002    0.10729373580000034    38.646897168500004    S
C    9.501652113399999    0.39924332080000013    37.23694378810001    S
C    9.496259475800002    1.8652144000999997    37.0868748809    S
C    9.648632650300002    2.4382438124    38.4072170513    S
C    8.9750886277    3.6136283071999995    38.756063875500004    S
C    8.102214568500003    4.231876269500001    37.7917689621    S
C    7.949516984900001    3.6522493878    36.5252296131    S
C    8.680772671    2.4738908908000004    36.1522242981    S
C    7.9374969922    1.7213177165000002    35.0484640358    S
C    7.9438301918    0.11702047380000025    35.210801938900005    S
C    8.6897804838    -0.39070921169999995    36.445936132300005    S
C    7.9639068175    -1.4709934680999999    37.0524026498    S
C    8.117929723899998    -1.7799526613999999    38.4106672962    S
C    8.9879415103    -0.9755745799    39.2288176327    S
C    8.3851399684    -0.8471596069999996    40.540146848800006    S
C    7.1322329903    -1.5828288872999998    40.5292680865    S
C    6.9691009733000016    -2.1605827279999996    39.209073801    S
C    5.7077892092999996    -2.2254828583    38.6190657576    S
C    5.5439835699    -1.9195038296999998    37.208068201900005    S
C    6.652777963200002    -1.5383018333999998    36.439749503200005    S
C    6.560077669800002    -0.49415426529999973    35.455674429700004    S
C    5.3683829411    0.18823169390000016    35.3089031333    S
C    5.363268707900001    1.6568850816    35.1580399695    S
C    6.550765866500001    2.3614197065    35.164485206600006    S
C    6.6377415325000015    3.5860353161000007    35.9122389479    S
C    5.5252741955    4.109797092000001    36.58733641    S
C    5.688537767699998    4.6926165501    37.9067980295    S
C    6.950105927500001    4.7577722053    38.496810205200006    S
C    7.114332858700003    4.457039394500001    39.9075886301    S
C    6.004824257500001    4.0967690795    40.6786602864    S
C    4.691079958700001    4.0266192512    40.0645129938    S
C    4.539252535199999    4.3169788549    38.7050521648    S
C    3.6691550634    3.5048658487    37.8750621387    S
C    4.280840635400001    3.3809806529000004    36.5672849461    S
C    4.2093816569    2.1661301533999997    35.8696541092    S
C    3.5057364696000004    1.0426680554000005    36.458405081100004    S
C    4.2178089522    -0.17234190709999986    36.110814449100005    S
C    4.2972339663    -1.2177021902999998    37.041609890100005    S
C    3.682923284200001    -1.08104736    38.3477709326    S
C    4.5554133919    -1.7045684020999998    39.325391851800006    S
C    4.705055621300001    -1.1440126280999998    40.597633173800006    S
C    6.019514708500001    -1.0805187939    41.212974094100005    S
C    6.116599717    0.17577850149999996    41.9334954189    S
C    4.860491356400001    0.8864592256999999    41.766725941000004    S
C    3.9887848483    0.06946985220000013    40.9412221061    S
C    3.1510171323    0.6733974388999999    39.9967038019    S
C    2.997489700799999    0.08939868510000037    38.6801896543    S
C    2.9050166287000003    1.1691477438000004    37.7150028363    S
C    2.9907830755000013    2.4225663729    38.4398926351    S
C    3.1463310237    2.1183866899    39.8481287522    S
C    3.9817494687000003    2.9051099757000007    40.648201435900006    S
C    4.856754052900001    2.2783578965999998    41.6232655003    S
C    6.1082467713999975    3.0151475262000003    41.6410772802    S
C    7.320294654000001    2.3318084469000007    41.7957968479    S
C    7.3247035256    0.8838030443    41.9449108008    S
C    8.476668621400002    0.3640734933000003    41.235685958000005    S
C    9.179068525200002    1.4871555433000005    40.6395642672    S
C    8.468938915800003    2.7036523066    40.9944561459    S
C    8.369682263599998    3.746504041    40.0668945563    S
C    8.578757363199998    -0.3576486861999997    33.8694404546    S
C    8.566969134300003    1.9252167884000007    33.6416093797    S
N    8.230866586399998    0.6988221725000003    32.927295848    S
H    8.185053311899999    -1.3310894938    33.5454557264    S
H    9.678704951699999    -0.4554278357999997    34.003804958900005    S
H    9.6674669897    2.0519344879    33.7489549127    S
H    8.168275822799998    2.8122524681    33.132490983400004    S
C    8.3212659991    1.6003868526000002    30.645061516700004    S
C    9.1410437613    2.5913699406000004    30.0926048778    S
C    8.617085611    3.5750710500000005    29.251814889600002    S
C    7.245841556000002    3.5771607070999996    28.945951679100002    S
C    6.957203825299999    1.5946785089    30.311821886900002    S
C    6.4207247717000016    2.5627243171000003    29.468911775200002    S
H    10.2063584317    2.6054746042    30.331136211500002    S
H    6.3075683462    0.8277115079000001    30.7360779352    S
H    5.3597364551    2.5497587375    29.2190832127    S
H    9.262924075699999    4.354683120500001    28.8470547066    S
S    6.5033599114000005    4.942648327499999    28.083701772700003    S
C    8.865805649199999    0.5748293320000002    31.6128932521    S
H    9.971756138099998    0.6711696263000002    31.680241880000004    S
H    8.6551848939    -0.44011668749999977    31.238396844700002    S
Au    5.82730   1.44190    44.9449108008    R0
Au    1.664900    0.000000    47.2995138008    R0
Au    6.659800    0.000000    47.2995138008    R0
Au    4.162300    1.441900    47.2995138008    R0
Au    9.157200    1.441900    47.2995138008    R0
Au    6.659800    2.883800    47.2995138008    R0
Au    11.654600    2.883800    47.2995138008    R0
Au    4.162300    4.325600    47.2995138008    R0
Au    9.157200    4.325600    47.2995138008    R0
Au    6.659800    5.767500    47.2995138008    R0
Au    11.654600    5.767500    47.2995138008    R0
Au    9.157200    7.209400    47.2995138008    R0
Au    14.152000    7.209400    47.2995138008    R0
Au    3.329900    0.000000    49.6541158008    R0
Au    8.324700    0.000000    49.6541158008    R0
Au    5.827300    1.441900    49.6541158008    R0
Au    10.822100    1.441900    49.6541158008    R0
Au    8.324700    2.883800    49.6541158008    R0
Au    13.319500    2.883800    49.6541158008    R0
Au    5.827300    4.325600    49.6541158008    R0
Au    10.822100    4.325600    49.6541158008    R0
Au    8.324700    5.767500    49.6541158008    R0
Au    13.319500    5.767500    49.6541158008    R0
Au    10.822100    7.209400    49.6541158008    R0
Au    15.816900    7.209400    49.6541158008    R0
Au    0.000000    0.000000    52.008512800800005    R0
Au    4.994800    0.000000    52.0087118008    R0
Au    2.497400    1.441900    52.0087118008    R0
Au    7.492200    1.441900    52.0087118008    R0
Au    4.994800    2.883800    52.0087118008    R0
Au    9.989600    2.883800    52.0087118008    R0
Au    2.497400    4.325600    52.0087118008    R0
Au    7.492200    4.325600    52.0087118008    R0
Au    4.994800    5.767500    52.0087118008    R0
Au    9.989600    5.767500    52.0087118008    R0
Au    7.492200    7.209400    52.0087118008    R0
Au    12.487000    7.209400    52.0087118008    R0
Au    1.664900    0.000000    54.3632148008    R1
Au    6.659800    0.000000    54.3632148008    R1
Au    4.162300    1.441900    54.3632148008    R1
Au    9.157200    1.441900    54.3632148008    R1
Au    6.659800    2.883800    54.3632148008    R1
Au    11.654600    2.883800    54.3632148008    R1
Au    4.162300    4.325600    54.3632148008    R1
Au    9.157200    4.325600    54.3632148008    R1
Au    6.659800    5.767500    54.3632148008    R1
Au    11.654600    5.767500    54.3632148008    R1
Au    9.157200    7.209400    54.3632148008    R1
Au    14.152000    7.209400    54.3632148008    R1
Au    3.329900    0.000000    56.7178138008    R1
Au    8.324700    0.000000    56.7178138008    R1
Au    5.827300    1.441900    56.7178138008    R1
Au    10.822100    1.441900    56.7178138008    R1
Au    8.324700    2.883800    56.7178138008    R1
Au    13.319500    2.883800    56.7178138008    R1
Au    5.827300    4.325600    56.7178138008    R1
Au    10.822100    4.325600    56.7178138008    R1
Au    8.324700    5.767500    56.7178138008    R1
Au    13.319500    5.767500    56.7178138008    R1
Au    10.822100    7.209400    56.7178138008    R1
Au    15.816900    7.209400    56.7178138008    R1
Au    0.000000    0.000000    59.072408800800005    R1
Au    4.994800    0.000000    59.072408800800005    R1
Au    2.497400    1.441900    59.072408800800005    R1
Au    7.492200    1.441900    59.072408800800005    R1
Au    4.994800    2.883800    59.072408800800005    R1
Au    9.989600    2.883800    59.072408800800005    R1
Au    2.497400    4.325600    59.072408800800005    R1
Au    7.492200    4.325600    59.072408800800005    R1
Au    4.994800    5.767500    59.072408800800005    R1
Au    9.989600    5.767500    59.072408800800005    R1
Au    7.492200    7.209400    59.072408800800005    R1
Au    12.487000    7.209400    59.072408800800005    R1
Au    1.664900    0.000000    61.4270136008    R2
Au    6.659800    0.000000    61.4270136008    R2
Au    4.162300    1.441900    61.4270136008    R2
Au    9.157200    1.441900    61.4270136008    R2
Au    6.659800    2.883800    61.4270136008    R2
Au    11.654600    2.883800    61.4270136008    R2
Au    4.162300    4.325600    61.4270136008    R2
Au    9.157200    4.325600    61.4270136008    R2
Au    6.659800    5.767500    61.4270136008    R2
Au    11.654600    5.767500    61.4270136008    R2
Au    9.157200    7.209400    61.4270136008    R2
Au    14.152000    7.209400    61.4270136008    R2
Au    3.329900    0.000000    63.7816131008    R2
Au    8.324700    0.000000    63.7816131008    R2
Au    5.827300    1.441900    63.7816131008    R2
Au    10.822100    1.441900    63.7816131008    R2
Au    8.324700    2.883800    63.7816131008    R2
Au    13.319500    2.883800    63.7816131008    R2
Au    5.827300    4.325600    63.7816131008    R2
Au    10.822100    4.325600    63.7816131008    R2
Au    8.324700    5.767500    63.7816131008    R2
Au    13.319500    5.767500    63.7816131008    R2
Au    10.822100    7.209400    63.7816131008    R2
Au    15.816900    7.209400    63.7816131008    R2
Au    0.000000    0.000000    66.1362201008    R2
Au    4.994800    0.000000    66.1362201008    R2
Au    2.497400    1.441900    66.1362201008    R2
Au    7.492200    1.441900    66.1362201008    R2
Au    4.994800    2.883800    66.1362201008    R2
Au    9.989600    2.883800    66.1362201008    R2
Au    2.497400    4.325600    66.1362201008    R2
Au    7.492200    4.325600    66.1362201008    R2
Au    4.994800    5.767500    66.1362201008    R2
Au    9.989600    5.767500    66.1362201008    R2
Au    7.492200    7.209400    66.1362201008    R2
Au    12.487000    7.209400    66.1362201008    R2
Au    1.664900    0.000000    68.4908136008    R3
Au    6.659800    0.000000    68.4908136008    R3
Au    4.162300    1.441900    68.4908136008    R3
Au    9.157200    1.441900    68.4908136008    R3
Au    6.659800    2.883800    68.4908136008    R3
Au    11.654600    2.883800    68.4908136008    R3
Au    4.162300    4.325600    68.4908136008    R3
Au    9.157200    4.325600    68.4908136008    R3
Au    6.659800    5.767500    68.4908136008    R3
Au    11.654600    5.767500    68.4908136008    R3
Au    9.157200    7.209400    68.4908136008    R3
Au    14.152000    7.209400    68.4908136008    R3
Au    3.329900    0.000000    70.8454131008    R3
Au    8.324700    0.000000    70.8454131008    R3
Au    5.827300    1.441900    70.8454131008    R3
Au    10.822100    1.441900    70.8454131008    R3
Au    8.324700    2.883800    70.8454131008    R3
Au    13.319500    2.883800    70.8454131008    R3
Au    5.827300    4.325600    70.8454131008    R3
Au    10.822100    4.325600    70.8454131008    R3
Au    8.324700    5.767500    70.8454131008    R3
Au    13.319500    5.767500    70.8454131008    R3
Au    10.822100    7.209400    70.8454131008    R3
Au    15.816900    7.209400    70.8454131008    R3
Au    0.000000    0.000000    73.2000201008    R3
Au    4.994800    0.000000    73.2000201008    R3
Au    2.497400    1.441900    73.2000201008    R3
Au    7.492200    1.441900    73.2000201008    R3
Au    4.994800    2.883800    73.2000201008    R3
Au    9.989600    2.883800    73.2000201008    R3
Au    2.497400    4.325600    73.2000201008    R3
Au    7.492200    4.325600    73.2000201008    R3
Au    4.994800    5.767500    73.2000201008    R3
Au    9.989600    5.767500    73.2000201008    R3
Au    7.492200    7.209400    73.2000201008    R3
Au    12.487000    7.209400    73.2000201008    R3
