155

Au     0.000000     0.000000     0.000000     L3
Au     8.760000     0.000000     0.000000     L3
Au     4.380000     7.586382     0.000000     L3
Au     13.140000     7.586382     0.000000     L3
Au     2.920000     0.000000     0.000000     L3
Au     11.680000     0.000000     0.000000     L3
Au     7.300000     7.586382     0.000000     L3
Au     16.059999     7.586382     0.000000     L3
Au     5.840000     0.000000     0.000000     L3
Au     10.220000     7.586382     0.000000     L3
Au     1.460000     2.528794     0.000000     L3
Au     10.220000     2.528794     0.000000     L3
Au     5.840000     10.115176     0.000000     L3
Au     14.600000     10.115176     0.000000     L3
Au     4.380000     2.528794     0.000000     L3
Au     13.140000     2.528794     0.000000     L3
Au     8.760000     10.115176     0.000000     L3
Au     17.520000     10.115176     0.000000     L3
Au     7.300000     2.528794     0.000000     L3
Au     11.680000     10.115176     0.000000     L3
Au     2.920000     5.057588     0.000000     L3
Au     11.680000     5.057588     0.000000     L3
Au     5.840000     5.057588     0.000000     L3
Au     14.600000     5.057588     0.000000     L3
Au     8.760000     5.057588     0.000000     L3
Au     1.460000     0.842931     2.384170     L3
Au     10.220000     0.842931     2.384170     L3
Au     5.840000     8.429314     2.384170     L3
Au     14.600000     8.429314     2.384170     L3
Au     4.380000     0.842931     2.384170     L3
Au     13.140000     0.842931     2.384170     L3
Au     8.760000     8.429314     2.384170     L3
Au     17.520000     8.429314     2.384170     L3
Au     7.300000     0.842931     2.384170     L3
Au     11.680000     8.429314     2.384170     L3
Au     2.920000     3.371726     2.384170     L3
Au     11.680000     3.371726     2.384170     L3
Au     7.300000     10.958108     2.384170     L3
Au     16.059999     10.958108     2.384170     L3
Au     5.840000     3.371726     2.384170     L3
Au     14.600000     3.371726     2.384170     L3
Au     10.220000     10.958108     2.384170     L3
Au     18.980000     10.958108     2.384170     L3
Au     8.760000     3.371726     2.384170     L3
Au     13.140000     10.958108     2.384170     L3
Au     4.380000     5.900520     2.384170     L3
Au     13.140000     5.900520     2.384170     L3
Au     7.300000     5.900520     2.384170     L3
Au     16.059999     5.900520     2.384170     L3
Au     10.220000     5.900520     2.384170     L3
Au     8.760000     1.685863     4.768340     L3
Au     13.140000     9.272245     4.768340     L3
Au     2.920000     1.685863     4.768340     L3
Au     11.680000     1.685863     4.768340     L3
Au     7.300000     9.272245     4.768340     L3
Au     16.059999     9.272245     4.768340     L3
Au     5.840000     1.685863     4.768340     L3
Au     14.600000     1.685863     4.768340     L3
Au     10.220000     9.272245     4.768340     L3
Au     18.980000     9.272245     4.768340     L3
Au     10.220000     4.214657     4.768340     L3
Au     14.600000     11.801040     4.768340     L3
Au     4.380000     4.214657     4.768340     L3
Au     13.140000     4.214657     4.768340     L3
Au     8.760000     11.801040     4.768340     L3
Au     17.520000     11.801040     4.768340     L3
Au     7.300000     4.214657     4.768340     L3
Au     16.059999     4.214657     4.768340     L3
Au     11.680000     11.801040     4.768340     L3
Au     20.440001     11.801040     4.768340     L3
Au     11.680000     6.743451     4.768340     L3
Au     5.840000     6.743451     4.768340     L3
Au     14.600000     6.743451     4.768340     L3
Au     8.760000     6.743451     4.768340     L3
Au     17.520000     6.743451     4.768340     L3
C    10.330274711521687    5.066872425668361    20.902883828814954    S
C    11.474918932513114    4.511254547210726    20.324809954457027    S
C    11.366682799155864    3.709717705566746    19.18574453176438    S
C    10.118037031269346    3.446772049795486    18.60156263285355    S
C    9.079531783252001    4.81221779783669    20.333819448324466    S
C    8.97764254126826    4.009999088329671    19.194532804254347    S
C    10.11573409416595    3.4448046360131706    10.959451997589088    S
H    12.266117184484658    3.274846207193022    18.743238903315387    S
H    10.411931544960112    5.690111157908145    21.7942643641087    S
H    8.179194101982283    5.236149166279835    20.78117783958625    S
H    7.995414138407984    3.8116403767588274    18.759007554278966    S
H    12.455400365179331    4.698898196551086    20.76510017366999    S
C    8.976854139432298    4.017312920787518    10.372227891034623    S
C    9.079545838023593    4.820391732451901    9.233727399500616    S
C    10.329539190041936    5.066386508612165    8.65933940583628    S
C    11.472594883610189    4.50157784459009    9.231518374517538    S
C    11.363653869818892    3.6994169050086256    10.370178920314688    S
H    8.180390628666053    5.251599724310083    8.791008021254326    S
H    7.995137737489493    3.825363835977628    10.811703499594856    S
H    12.452582297117015    4.682779166754219    8.787241019341089    S
H    12.261710296281363    3.2569212103644043    10.807830359310124    S
H    10.411928976016386    5.690108646016416    7.76834    S
C    10.009392647794341    2.6183082402422073    17.343718833755965    S
C    10.006115327757769    2.6162192972131724    12.217183219356588    S
C    10.121718979102493    3.4578134084951913    13.501799533682316    S
C    10.120984303688866    3.459646688178614    16.058565299694216    S
H    10.798839485613843    1.8493682042472992    17.33865824621551    S
H    9.047661958285062    2.0802846134890034    17.33815430946329    S
H    9.042589148399047    2.0813632552644883    12.223958757528983    S
H    10.793060594182199    1.8447354877602944    12.221086714615812    S
C    10.008653869665457    2.624038354624642    14.7807062312956    S
H    11.081380674080696    4.001501074021409    16.065524347945935    S
H    9.336375783622096    4.23442881320757    16.066562496271374    S
H    10.79265590099964    1.8466001179696772    14.78153746203267    S
H    9.046411601035391    2.0826069152125894    14.780933092274056    S
H    11.083640611899773    3.996876490904162    13.493106694644245    S
H    9.339375025146758    4.234890526687568    13.494106081984162    S
