128

Au         0.00000        0.00000        0.00000
Au         8.76000        0.00000        0.00000
Au         4.38000        7.58638        0.00000
Au        13.14000        7.58638        0.00000
Au         2.92000        0.00000        0.00000
Au         7.30000        7.58638        0.00000
Au         5.84000        0.00000        0.00000
Au        10.22000        7.58638        0.00000
Au         1.46000        2.52879        0.00000
Au        10.22000        2.52879        0.00000
Au         4.38000        2.52879        0.00000
Au         7.30000        2.52879        0.00000
Au         2.92000        5.05759        0.00000
Au        11.68000        5.05759        0.00000
Au         5.84000        5.05759        0.00000
Au         8.76000        5.05759        0.00000
Au         1.46000        0.84293        2.38417
Au        10.22000        0.84293        2.38417
Au         5.84000        8.42931        2.38417
Au        14.60000        8.42931        2.38417
Au         4.38000        0.84293        2.38417
Au         8.76000        8.42931        2.38417
Au         7.30000        0.84293        2.38417
Au        11.68000        8.42931        2.38417
Au         2.92000        3.37173        2.38417
Au        11.68000        3.37173        2.38417
Au         5.84000        3.37173        2.38417
Au         8.76000        3.37173        2.38417
Au         4.38000        5.90052        2.38417
Au        13.14000        5.90052        2.38417
Au         7.30000        5.90052        2.38417
Au        10.22000        5.90052        2.38417
Au         8.76000        1.68586        4.76834
Au        13.14000        9.27224        4.76834
Au         2.92000        1.68586        4.76834
Au        11.68000        1.68586        4.76834
Au         7.30000        9.27224        4.76834
Au        16.06000        9.27224        4.76834
Au         5.84000        1.68586        4.76834
Au        10.22000        9.27224        4.76834
Au        10.22000        4.21466        4.76834
Au         4.38000        4.21466        4.76834
Au        13.14000        4.21466        4.76834
Au         7.30000        4.21466        4.76834
Au        11.68000        6.74345        4.76834
Au         5.84000        6.74345        4.76834
Au        14.60000        6.74345        4.76834
Au         8.76000        6.74345        4.76834
C          8.76270        6.74909       19.59377
C          9.97228        6.28520       19.04434
C          9.97643        5.64843       17.80658
C          8.78708        5.44803       17.07568
C          7.55673        6.47896       18.91961
C          7.57702        5.84691       17.68057
C          8.81050        4.88252       15.70743
C          9.74227        3.90006       15.32615
C          9.76897        3.39994       14.02371
C          8.87364        3.85729       13.04559
C          7.91235        5.34083       14.72178
C          7.94694        4.84329       13.42114
C          8.92178        4.25471       10.49838
C          8.00506        4.17533        9.43698
C          8.05230        5.06380        8.36355
C          9.03568        6.06825        8.31837
C          9.91107        5.25035       10.43811
C          9.97948        6.13559        9.36617
H         10.90968        6.47219       19.56852
H         10.93137        5.34963       17.37260
S          8.76728        7.92319       20.91976
H          6.61052        6.79573       19.35865
H          6.63228        5.65566       17.17035
H          7.19675        6.12530       14.97196
H         10.43995        3.50200       16.06436
H         10.49546        2.62675       13.76436
H          7.24900        5.23576       12.67897
H         10.64131        5.33380       11.24530
H          7.23021        3.40587        9.45311
H          7.31241        4.99531        7.56436
S          9.04619        7.38215        7.13899
H         10.75728        6.89889        9.33602
Au         0.00000        0.00000       23.06780
Au         8.76000        0.00000       23.06780
Au         4.38000        7.58638       23.06780
Au        13.14000        7.58638       23.06780
Au         2.92000        0.00000       23.06780
Au         7.30000        7.58638       23.06780
Au         5.84000        0.00000       23.06780
Au        10.22000        7.58638       23.06780
Au         1.46000        2.52879       23.06780
Au        10.22000        2.52879       23.06780
Au         4.38000        2.52879       23.06780
Au         7.30000        2.52879       23.06780
Au         2.92000        5.05759       23.06780
Au        11.68000        5.05759       23.06780
Au         5.84000        5.05759       23.06780
Au         8.76000        5.05759       23.06780
Au         1.46000        0.84293       25.45197
Au        10.22000        0.84293       25.45197
Au         5.84000        8.42931       25.45197
Au        14.60000        8.42931       25.45197
Au         4.38000        0.84293       25.45197
Au         8.76000        8.42931       25.45197
Au         7.30000        0.84293       25.45197
Au        11.68000        8.42931       25.45197
Au         2.92000        3.37173       25.45197
Au        11.68000        3.37173       25.45197
Au         5.84000        3.37173       25.45197
Au         8.76000        3.37173       25.45197
Au         4.38000        5.90052       25.45197
Au        13.14000        5.90052       25.45197
Au         7.30000        5.90052       25.45197
Au        10.22000        5.90052       25.45197
Au         8.76000        1.68586       27.83614
Au        13.14000        9.27224       27.83614
Au         2.92000        1.68586       27.83614
Au        11.68000        1.68586       27.83614
Au         7.30000        9.27224       27.83614
Au        16.06000        9.27224       27.83614
Au         5.84000        1.68586       27.83614
Au        10.22000        9.27224       27.83614
Au        10.22000        4.21466       27.83614
Au         4.38000        4.21466       27.83614
Au        13.14000        4.21466       27.83614
Au         7.30000        4.21466       27.83614
Au        11.68000        6.74345       27.83614
Au         5.84000        6.74345       27.83614
Au        14.60000        6.74345       27.83614
Au         8.76000        6.74345       27.83614
