216

Au         0.0000000000        0.0000000000        0.0000000000 L3
Au   8.76   0.0000000000   0.0000000000   L3
Au   4.38   7.586382504   0.0000000000   L3
Au   13.14   7.586382504   0.0000000000   L3
 Au         2.9200000000        0.0000000000        0.0000000000 L3
Au   11.68   0.0000000000   0.0000000000   L3
Au   7.3   7.586382504   0.0000000000   L3
Au   16.06   7.586382504   0.0000000000   L3
 Au         5.8400000000        0.0000000000        0.0000000000 L3
Au   14.6   0.0000000000   0.0000000000   L3
Au   10.219999999999999   7.586382504   0.0000000000   L3
Au   18.979999999999997   7.586382504   0.0000000000   L3
 Au         1.4600000000        2.5287941680        0.0000000000 L3
Au   10.219999999999999   2.5287941680   0.0000000000   L3
Au   5.84   10.115176672   0.0000000000   L3
Au   14.6   10.115176672   0.0000000000   L3
 Au         4.3800000000        2.5287941680        0.0000000000 L3
Au   13.14   2.5287941680   0.0000000000   L3
Au   8.76   10.115176672   0.0000000000   L3
Au   17.52   10.115176672   0.0000000000   L3
 Au         7.3000000000        2.5287941680        0.0000000000 L3
Au   16.06   2.5287941680   0.0000000000   L3
Au   11.68   10.115176672   0.0000000000   L3
Au   20.439999999999998   10.115176672   0.0000000000   L3
 Au         2.9200000000        5.0575883360        0.0000000000 L3
Au   11.68   5.0575883360   0.0000000000   L3
Au   7.3   12.643970840000001   0.0000000000   L3
Au   16.06   12.643970840000001   0.0000000000   L3
 Au         5.8400000000        5.0575883360        0.0000000000 L3
Au   14.6   5.0575883360   0.0000000000   L3
Au   10.219999999999999   12.643970840000001   0.0000000000   L3
Au   18.979999999999997   12.643970840000001   0.0000000000   L3
 Au         8.7600000000        5.0575883360        0.0000000000 L3
Au   17.52   5.0575883360   0.0000000000   L3
Au   13.14   12.643970840000001   0.0000000000   L3
Au   21.9   12.643970840000001   0.0000000000   L3
 Au         1.4600000000        0.8429312920        2.3841700720 L3
Au   10.219999999999999   0.8429312920   2.3841700720   L3
Au   5.84   8.429313796   2.3841700720   L3
Au   14.6   8.429313796   2.3841700720   L3
 Au         4.3800000000        0.8429312920        2.3841700720 L3
Au   13.14   0.8429312920   2.3841700720   L3
Au   8.76   8.429313796   2.3841700720   L3
Au   17.52   8.429313796   2.3841700720   L3
 Au         7.3000000000        0.8429312920        2.3841700720 L3
Au   16.06   0.8429312920   2.3841700720   L3
Au   11.68   8.429313796   2.3841700720   L3
Au   20.439999999999998   8.429313796   2.3841700720   L3
 Au         2.9200000000        3.3717254600        2.3841700720 L3
Au   11.68   3.3717254600   2.3841700720   L3
Au   7.3   10.958107964   2.3841700720   L3
Au   16.06   10.958107964   2.3841700720   L3
 Au         5.8400000000        3.3717254600        2.3841700720 L3
Au   14.6   3.3717254600   2.3841700720   L3
Au   10.219999999999999   10.958107964   2.3841700720   L3
Au   18.979999999999997   10.958107964   2.3841700720   L3
 Au         8.7600000000        3.3717254600        2.3841700720 L3
Au   17.52   3.3717254600   2.3841700720   L3
Au   13.14   10.958107964   2.3841700720   L3
Au   21.9   10.958107964   2.3841700720   L3
 Au         4.3800000000        5.9005196280        2.3841700720 L3
Au   13.14   5.9005196280   2.3841700720   L3
Au   8.76   13.486902132   2.3841700720   L3
Au   17.52   13.486902132   2.3841700720   L3
 Au         7.3000000000        5.9005196280        2.3841700720 L3
Au   16.06   5.9005196280   2.3841700720   L3
Au   11.68   13.486902132   2.3841700720   L3
Au   20.439999999999998   13.486902132   2.3841700720   L3
 Au        10.2200000000        5.9005196280        2.3841700720 L3
Au   18.98   5.9005196280   2.3841700720   L3
Au   14.600000000000001   13.486902132   2.3841700720   L3
Au   23.36   13.486902132   2.3841700720   L3
 Au         0.0000000000        1.6858628760        4.7683401440 L3
Au   8.76   1.6858628760   4.7683401440   L3
Au   4.38   9.272245380000001   4.7683401440   L3
Au   13.14   9.272245380000001   4.7683401440   L3
 Au         2.9200000000        1.6858628760        4.7683401440 L3
Au   11.68   1.6858628760   4.7683401440   L3
Au   7.3   9.272245380000001   4.7683401440   L3
Au   16.06   9.272245380000001   4.7683401440   L3
 Au         5.8400000000        1.6858628760        4.7683401440 L3
Au   14.6   1.6858628760   4.7683401440   L3
Au   10.219999999999999   9.272245380000001   4.7683401440   L3
Au   18.979999999999997   9.272245380000001   4.7683401440   L3
 Au         1.4600000000        4.2146570440        4.7683401440 L3
Au   10.219999999999999   4.2146570440   4.7683401440   L3
Au   5.84   11.801039548   4.7683401440   L3
Au   14.6   11.801039548   4.7683401440   L3
 Au         4.3800000000        4.2146570440        4.7683401440 L3
Au   13.14   4.2146570440   4.7683401440   L3
Au   8.76   11.801039548   4.7683401440   L3
Au   17.52   11.801039548   4.7683401440   L3
 Au         7.3000000000        4.2146570440        4.7683401440 L3
Au   16.06   4.2146570440   4.7683401440   L3
Au   11.68   11.801039548   4.7683401440   L3
Au   20.439999999999998   11.801039548   4.7683401440   L3
 Au         2.9200000000        6.7434512120        4.7683401440 L3
Au   11.68   6.7434512120   4.7683401440   L3
Au   7.3   14.329833716   4.7683401440   L3
Au   16.06   14.329833716   4.7683401440   L3
 Au         5.8400000000        6.7434512120        4.7683401440 L3
Au   14.6   6.7434512120   4.7683401440   L3
Au   10.219999999999999   14.329833716   4.7683401440   L3
Au   18.979999999999997   14.329833716   4.7683401440   L3
 Au         8.7600000000        6.7434512120        4.7683401440 L3
Au   17.52   6.7434512120   4.7683401440   L3
Au   13.14   14.329833716   4.7683401440   L3
Au   21.9   14.329833716   4.7683401440   L3
C    10.820091265223148    5.631790541105678    22.219540223356116    S
C    11.41106602272249    6.753075345805952    21.56013871871467    S
C    11.746773200654527    6.6946519307195    20.218363749279433    S
C    11.519592417298789    5.528108061654979    19.457044262479823    S
C    10.59028213548228    4.457463150750986    21.43876350447294    S
C    10.932203467496176    4.416053593497635    20.098239225162942    S
C    9.328512339788613    6.370162464065679    10.841876247766619    S
H    12.20498375511011    7.561968207944709    19.73779380325424    S
S    10.411928976192534    5.690108646545875    23.873931003965176    S
H    10.143811881010446    3.5927687458824114    21.929931703949283    S
H    10.754760273139425    3.504240969268963    19.523496086333466    S
H    11.595968183257462    7.654024263421487    22.145287976378107    S
C    9.838808362530536    7.420765688241875    10.050494237694501    S
C    10.168396639257058    7.223552034326911    8.720011831038235    S
C    10.007738256581092    5.944319036459026    8.105052812551582    S
C    9.490956490051381    4.8867750364703255    8.915438907722782    S
C    9.163056059040873    5.102275355647027    10.242336240648585    S
H    10.554548544356017    8.041439876779126    8.111695686559713    S
H    9.968003136763794    8.408579478596142    10.498142695528864    S
H    9.358371556948018    3.9065835025631728    8.457497099827805    S
H    8.763584589633217    4.2796046443236655    10.839782503127333    S
S    10.411928976016386    5.690108646016416    6.4683399999999995    S
C    11.85396987308728    5.482513676006096    17.99355787579776    S
C    9.014366606533976    6.575376577488752    12.296527805801254    S
C    10.17172096718955    6.124282770875736    13.215285472771956    S
C    10.675051455963626    5.929386359135428    17.09973226099678    S
H    12.721069742737185    6.130142449160326    17.788661241673864    S
H    12.143358498627055    4.457437374178944    17.712147091270534    S
H    8.108153327982112    6.008053660926656    12.563855754227605    S
H    8.796968255782442    7.637933395868139    12.485912774455215    S
C    11.004387186277572    5.836944764886214    15.607621353482212    S
H    10.39567037499122    6.963156784469021    17.360968465612448    S
H    9.794017079435626    5.306734833538194    17.325799408462803    S
C    9.851758039180432    6.284770186981136    14.704017988106745    S
H    8.946361130667654    5.7032286287796445    14.948908747141513    S
H    9.604506929171425    7.338450995365383    14.918369693653963    S
H    11.898227426985159    6.44601524511814    15.389637765423018    S
H    11.278437241024331    4.797073143396753    15.360036126660157    S
H    11.076636587562998    6.700644801508519    12.962121457945376    S
H    10.410491213391378    5.069848827300039    13.000309685080612    S
