45

C          7.57189        5.76415       15.64398
N          7.58336        5.69456       14.53100
H          7.56166        5.82617       16.63599
C         11.29732        5.40242       22.09029
C         12.13747        6.35440       21.48474
C         12.53838        6.17631       20.16319
C         12.12812        5.05692       19.41925
C         10.96211        4.22664       21.39482
C         11.37439        4.06790       20.07429
C          9.61993        6.41011       10.98593
H         13.15912        6.93915       19.68840
S         10.37272        5.85231       23.52513
H         10.34369        3.47005       21.87787
H         11.07859        3.16900       19.52927
H         12.42997        7.24695       22.03797
C         10.38805        7.32875       10.25042
C         10.83800        7.03223        8.96626
C         10.52615        5.78742        8.39084
C          9.66910        4.90214        9.06934
C          9.22982        5.21792       10.35222
H         11.46873        7.73611        8.42301
H         10.66825        8.28124       10.70533
H          9.39319        3.95471        8.60613
H          8.59721        4.50678       10.88785
S         11.48072        5.18790        7.03197
C         12.38897        4.97311       17.93725
C          9.34019        6.63035       12.45084
C         10.47834        6.03160       13.30703
C         11.23872        5.61799       17.13184
H         13.33509        5.47946       17.68941
H         12.49819        3.92039       17.63191
H          8.38499        6.15917       12.73082
H          9.24498        7.70633       12.66516
C         11.43200        5.53872       15.61568
H         11.13420        6.67133       17.44061
H         10.29187        5.12630       17.41013
C         10.27829        6.16238       14.81891
H          9.32955        5.67899       15.10913
H         10.17453        7.22665       15.09124
H         12.37706        6.03659       15.33816
H         11.54753        4.48233       15.31730
H         11.42736        6.51237       13.01736
H         10.59045        4.96650       13.04482
H          9.63440        4.78843       23.94065
H         12.23377        6.20065        6.52516
