47

C       -0.037515    2.957813    1.190089
N        1.007057    2.502650    0.930669
H       -1.002095    3.379690    1.429401
C       -6.759108    0.431385   -0.155184
C       -6.467824   -0.817432    0.426879
C       -5.277317   -1.479091    0.108550
C       -4.347955   -0.927067   -0.793480
C       -5.849073    0.989553   -1.070579
C       -4.664162    0.312099   -1.379885
C        4.252456   -0.421547    0.842399
H       -5.065603   -2.448917    0.574116
S       -8.273253    1.245999    0.324914
H       -6.062235    1.954605   -1.543346
H       -3.964450    0.762029   -2.094419
H       -7.174402   -1.272672    1.128880
C        5.317706   -1.330766    0.725615
C        6.529807   -0.963535    0.126005
C        6.699524    0.339302   -0.374605
C        5.645241    1.265080   -0.254686
C        4.442308    0.883465    0.345027
H        7.341316   -1.695556    0.049074
H        5.201050   -2.351485    1.109250
H        5.767465    2.286235   -0.631575
H        3.626218    1.610887    0.428724
S        8.198872    0.893451   -1.171169
C       -3.013863   -1.588678   -1.058017
C        2.910341   -0.824650    1.412092
C        1.906086   -1.214667    0.305505
C       -1.983405   -1.260308    0.044718
H       -3.131710   -2.685942   -1.137034
H       -2.618510   -1.244168   -2.032427
H        2.487314    0.023343    1.982850
H        3.027609   -1.663436    2.123730
C       -0.544099   -1.650348   -0.312732
H       -2.292228   -1.747270    0.990327
H       -2.014708   -0.170803    0.242458
C        0.458880   -1.310454    0.802480
H        0.185782   -0.332468    1.245895
H        0.378258   -2.051634    1.621964
H       -0.487550   -2.728192   -0.561719
H       -0.254736   -1.109616   -1.236275
H        2.223040   -2.166163   -0.164279
H        1.952168   -0.448563   -0.492003
H       -8.174200    2.281583   -0.548948
H        8.884753   -0.272174   -1.040397
