144
XYZ file
Au    6.659699    8.651200    0.000000
Au   11.654600    8.651200    0.000000
Au    4.162300    1.441900    0.000000
Au    9.157201    1.441900    0.000000
Au    6.659800    2.883800    0.000000
Au    1.665000    2.883800    0.000000
Au    4.162300    4.325600    0.000000
Au    9.157200    4.325600    0.000000
Au    6.659800    5.767500    0.000000
Au   11.654600    5.767500    0.000000
Au    9.157200    7.209401    0.000000
Au    4.162400    7.209401    0.000000
Au    8.324699    8.651200    2.354600
Au   13.319500    8.651200    2.354600
Au    5.827300    1.441900    2.354600
Au    0.832500    1.441900    2.354600
Au    8.324700    2.883800    2.354600
Au    3.329900    2.883800    2.354600
Au    5.827300    4.325600    2.354600
Au   10.822100    4.325600    2.354600
Au    8.324699    5.767500    2.354600
Au    3.329900    5.767500    2.354600
Au   10.822100    7.209401    2.354600
Au    5.827300    7.209401    2.354600
Au    4.994800    8.651200    4.709200
Au    9.989599    8.651200    4.709200
Au    2.497400    1.441900    4.709200
Au    7.492200    1.441900    4.709200
Au    4.994800    2.883800    4.709200
Au    9.989600    2.883800    4.709200
Au    2.497400    4.325600    4.709200
Au    7.492199    4.325600    4.709200
Au    4.994800    5.767500    4.709200
Au    9.989600    5.767500    4.709200
Au    7.492200    7.209401    4.709200
Au   12.487000    7.209401    4.709200
Au    6.659699    8.651200    7.063800
Au   11.654600    8.651200    7.063800
Au    4.162300    1.441900    7.063800
Au    9.157201    1.441900    7.063800
Au    6.659800    2.883800    7.063800
Au    1.665000    2.883800    7.063800
Au    4.162300    4.325600    7.063800
Au    9.157200    4.325600    7.063800
Au    6.659800    5.767500    7.063800
Au   11.654600    5.767500    7.063800
Au    9.157200    7.209401    7.063800
Au    4.162400    7.209401    7.063800
Au    8.324699    8.651200    9.418400
Au   13.319500    8.651200    9.418400
Au    5.827300    1.441900    9.418400
Au    0.832500    1.441900    9.418400
Au    8.324700    2.883800    9.418400
Au    3.329900    2.883800    9.418400
Au    5.827300    4.325600    9.418400
Au   10.822100    4.325600    9.418400
Au    8.324699    5.767500    9.418400
Au    3.329900    5.767500    9.418400
Au   10.822100    7.209401    9.418400
Au    5.827300    7.209401    9.418400
Au    4.994800    8.651200   11.772900
Au    9.989599    8.651200   11.772900
Au    2.497400    1.441900   11.772900
Au    7.492200    1.441900   11.772900
Au    4.994800    2.883800   11.772900
Au    9.989600    2.883800   11.772900
Au    2.497400    4.325600   11.772900
Au    7.492199    4.325600   11.772900
Au    4.994800    5.767500   11.772900
Au    9.989600    5.767500   11.772900
Au    7.492200    7.209401   11.772900
Au   12.487000    7.209401   11.772900
Au    6.659699    8.651200   14.127601
Au   11.654600    8.651200   14.127601
Au    4.162300    1.441900   14.127601
Au    9.157201    1.441900   14.127601
Au    6.659800    2.883800   14.127601
Au    1.665000    2.883800   14.127601
Au    4.162300    4.325600   14.127601
Au    9.157200    4.325600   14.127601
Au    6.659800    5.767500   14.127601
Au   11.654600    5.767500   14.127601
Au    9.157200    7.209401   14.127601
Au    4.162400    7.209401   14.127601
Au    8.324699    8.651200   16.482201
Au   13.319500    8.651200   16.482201
Au    5.827300    1.441900   16.482201
Au    0.832500    1.441900   16.482201
Au    8.324700    2.883800   16.482201
Au    3.329900    2.883800   16.482201
Au    5.827300    4.325600   16.482201
Au   10.822100    4.325600   16.482201
Au    8.324699    5.767500   16.482201
Au    3.329900    5.767500   16.482201
Au   10.822100    7.209401   16.482201
Au    5.827300    7.209401   16.482201
Au    4.994800    8.651200   18.836800
Au    9.989599    8.651200   18.836800
Au    2.497400    1.441900   18.836800
Au    7.492200    1.441900   18.836800
Au    4.994800    2.883800   18.836800
Au    9.989600    2.883800   18.836800
Au    2.497400    4.325600   18.836800
Au    7.492199    4.325600   18.836800
Au    4.994800    5.767500   18.836800
Au    9.989600    5.767500   18.836800
Au    7.492200    7.209401   18.836800
Au   12.487000    7.209401   18.836800
Au    6.659699    8.651200   21.191401
Au   11.654600    8.651200   21.191401
Au    4.162300    1.441900   21.191401
Au    9.157201    1.441900   21.191401
Au    6.659800    2.883800   21.191401
Au    1.665000    2.883800   21.191401
Au    4.162300    4.325600   21.191401
Au    9.157200    4.325600   21.191401
Au    6.659800    5.767500   21.191401
Au   11.654600    5.767500   21.191401
Au    9.157200    7.209401   21.191401
Au    4.162400    7.209401   21.191401
Au    8.324699    8.651200   23.546001
Au   13.319500    8.651200   23.546001
Au    5.827300    1.441900   23.546001
Au    0.832500    1.441900   23.546001
Au    8.324700    2.883800   23.546001
Au    3.329900    2.883800   23.546001
Au    5.827300    4.325600   23.546001
Au   10.822100    4.325600   23.546001
Au    8.324699    5.767500   23.546001
Au    3.329900    5.767500   23.546001
Au   10.822100    7.209401   23.546001
Au    5.827300    7.209401   23.546001
Au    4.994800    8.651200   25.900501
Au    9.989599    8.651200   25.900501
Au    2.497400    1.441900   25.900501
Au    7.492200    1.441900   25.900501
Au    4.994800    2.883800   25.900501
Au    9.989600    2.883800   25.900501
Au    2.497400    4.325600   25.900501
Au    7.492199    4.325600   25.900501
Au    4.994800    5.767500   25.900501
Au    9.989600    5.767500   25.900501
Au    7.492200    7.209401   25.900501
Au   12.487000    7.209401   25.900501
