145
XYZ file
Au    8.324699    5.767500   46.192200
Au    6.659699    8.651200   48.546803
Au   11.654600    8.651200   48.546803
Au    4.162300    1.441900   48.546803
Au    9.157201    1.441900   48.546803
Au    6.659800    2.883800   48.546803
Au    1.665000    2.883800   48.546803
Au    4.162300    4.325600   48.546803
Au    9.157200    4.325600   48.546803
Au    6.659800    5.767500   48.546803
Au   11.654600    5.767500   48.546803
Au    9.157200    7.209401   48.546803
Au    4.162400    7.209401   48.546803
Au    8.324699    8.651200   50.901405
Au   13.319500    8.651200   50.901405
Au    5.827300    1.441900   50.901405
Au    0.832500    1.441900   50.901405
Au    8.324700    2.883800   50.901405
Au    3.329900    2.883800   50.901405
Au    5.827300    4.325600   50.901405
Au   10.822100    4.325600   50.901405
Au    8.324699    5.767500   50.901405
Au    3.329900    5.767500   50.901405
Au   10.822100    7.209401   50.901405
Au    5.827300    7.209401   50.901405
Au    4.994800    8.651200   53.255802
Au    9.989599    8.651200   53.256001
Au    2.497400    1.441900   53.256001
Au    7.492200    1.441900   53.256001
Au    4.994800    2.883800   53.256001
Au    9.989600    2.883800   53.256001
Au    2.497400    4.325600   53.256001
Au    7.492199    4.325600   53.256001
Au    4.994800    5.767500   53.256001
Au    9.989600    5.767500   53.256001
Au    7.492200    7.209401   53.256001
Au   12.487000    7.209401   53.256001
Au    6.659699    8.651200   55.610504
Au   11.654600    8.651200   55.610504
Au    4.162300    1.441900   55.610504
Au    9.157201    1.441900   55.610504
Au    6.659800    2.883800   55.610504
Au    1.665000    2.883800   55.610504
Au    4.162300    4.325600   55.610504
Au    9.157200    4.325600   55.610504
Au    6.659800    5.767500   55.610504
Au   11.654600    5.767500   55.610504
Au    9.157200    7.209401   55.610504
Au    4.162400    7.209401   55.610504
Au    8.324699    8.651200   57.965103
Au   13.319500    8.651200   57.965103
Au    5.827300    1.441900   57.965103
Au    0.832500    1.441900   57.965103
Au    8.324700    2.883800   57.965103
Au    3.329900    2.883800   57.965103
Au    5.827300    4.325600   57.965103
Au   10.822100    4.325600   57.965103
Au    8.324699    5.767500   57.965103
Au    3.329900    5.767500   57.965103
Au   10.822100    7.209401   57.965103
Au    5.827300    7.209401   57.965103
Au    4.994800    8.651200   60.319698
Au    9.989599    8.651200   60.319698
Au    2.497400    1.441900   60.319698
Au    7.492200    1.441900   60.319698
Au    4.994800    2.883800   60.319698
Au    9.989600    2.883800   60.319698
Au    2.497400    4.325600   60.319698
Au    7.492199    4.325600   60.319698
Au    4.994800    5.767500   60.319698
Au    9.989600    5.767500   60.319698
Au    7.492200    7.209401   60.319698
Au   12.487000    7.209401   60.319698
Au    6.659699    8.651200   62.674404
Au   11.654600    8.651200   62.674404
Au    4.162300    1.441900   62.674404
Au    9.157201    1.441900   62.674404
Au    6.659800    2.883800   62.674404
Au    1.665000    2.883800   62.674404
Au    4.162300    4.325600   62.674404
Au    9.157200    4.325600   62.674404
Au    6.659800    5.767500   62.674404
Au   11.654600    5.767500   62.674404
Au    9.157200    7.209401   62.674404
Au    4.162400    7.209401   62.674404
Au    8.324699    8.651200   65.028999
Au   13.319500    8.651200   65.028999
Au    5.827300    1.441900   65.028999
Au    0.832500    1.441900   65.028999
Au    8.324700    2.883800   65.028999
Au    3.329900    2.883800   65.028999
Au    5.827300    4.325600   65.028999
Au   10.822100    4.325600   65.028999
Au    8.324699    5.767500   65.028999
Au    3.329900    5.767500   65.028999
Au   10.822100    7.209401   65.028999
Au    5.827300    7.209401   65.028999
Au    4.994800    8.651200   67.383400
Au    9.989599    8.651200   67.383606
Au    2.497400    1.441900   67.383606
Au    7.492200    1.441900   67.383606
Au    4.994800    2.883800   67.383606
Au    9.989600    2.883800   67.383606
Au    2.497400    4.325600   67.383606
Au    7.492199    4.325600   67.383606
Au    4.994800    5.767500   67.383606
Au    9.989600    5.767500   67.383606
Au    7.492200    7.209401   67.383606
Au   12.487000    7.209401   67.383606
Au    6.659699    8.651200   69.738098
Au   11.654600    8.651200   69.738098
Au    4.162300    1.441900   69.738098
Au    9.157201    1.441900   69.738098
Au    6.659800    2.883800   69.738098
Au    1.665000    2.883800   69.738098
Au    4.162300    4.325600   69.738098
Au    9.157200    4.325600   69.738098
Au    6.659800    5.767500   69.738098
Au   11.654600    5.767500   69.738098
Au    9.157200    7.209401   69.738098
Au    4.162400    7.209401   69.738098
Au    8.324699    8.651200   72.092697
Au   13.319500    8.651200   72.092697
Au    5.827300    1.441900   72.092697
Au    0.832500    1.441900   72.092697
Au    8.324700    2.883800   72.092697
Au    3.329900    2.883800   72.092697
Au    5.827300    4.325600   72.092697
Au   10.822100    4.325600   72.092697
Au    8.324699    5.767500   72.092697
Au    3.329900    5.767500   72.092697
Au   10.822100    7.209401   72.092697
Au    5.827300    7.209401   72.092697
Au    4.994800    8.651200   74.447304
Au    9.989599    8.651200   74.447304
Au    2.497400    1.441900   74.447304
Au    7.492200    1.441900   74.447304
Au    4.994800    2.883800   74.447304
Au    9.989600    2.883800   74.447304
Au    2.497400    4.325600   74.447304
Au    7.492199    4.325600   74.447304
Au    4.994800    5.767500   74.447304
Au    9.989600    5.767500   74.447304
Au    7.492200    7.209401   74.447304
Au   12.487000    7.209401   74.447304
