 351

Au      1.664900    0.000000    0.000000 L3
Au      6.659800    0.000000    0.000000 L3
Au      4.162300    1.441900    0.000000 L3
Au      9.157200    1.441900    0.000000 L3
Au      6.659800    2.883800    0.000000 L3
Au      11.654600    2.883800    0.000000 L3
Au      4.162300    4.325600    0.000000 L3
Au      9.157200    4.325600    0.000000 L3
Au      6.659800    5.767500    0.000000 L3
Au      11.654600    5.767500    0.000000 L3
Au      9.157200    7.209400    0.000000 L3
Au      14.152000    7.209400    0.000000 L3
Au      3.329900    0.000000    2.354600 L3
Au      8.324700    0.000000    2.354600 L3
Au      5.827300    1.441900    2.354600 L3
Au      10.822100    1.441900    2.354600 L3
Au      8.324700    2.883800    2.354600 L3
Au      13.319500    2.883800    2.354600 L3
Au      5.827300    4.325600    2.354600 L3
Au      10.822100    4.325600    2.354600 L3
Au      8.324700    5.767500    2.354600 L3
Au      13.319500    5.767500    2.354600 L3
Au      10.822100    7.209400    2.354600 L3
Au      15.816900    7.209400    2.354600 L3
Au      0.000000    0.000000    4.70919594 L3
Au      4.994800    0.000000    4.70919594 L3
Au      2.497400    1.441900    4.70919594 L3
Au      7.492200    1.441900    4.70919594 L3
Au      4.994800    2.883800    4.70919594 L3
Au      9.989600    2.883800    4.70919594 L3
Au      2.497400    4.325600    4.70919594 L3
Au      7.492200    4.325600    4.70919594 L3
Au      4.994800    5.767500    4.70919594 L3
Au      9.989600    5.767500    4.70919594 L3
Au      7.492200    7.209400    4.70919594 L3
Au      12.487000    7.209400    4.70919594 L3
Au      1.664900    0.000000    7.063800 L2
Au      6.659800    0.000000    7.063800 L2
Au      4.162300    1.441900    7.063800 L2
Au      9.157200    1.441900    7.063800 L2
Au      6.659800    2.883800    7.063800 L2
Au      11.654600    2.883800    7.063800 L2
Au      4.162300    4.325600    7.063800 L2
Au      9.157200    4.325600    7.063800 L2
Au      6.659800    5.767500    7.063800 L2
Au      11.654600    5.767500    7.063800 L2
Au      9.157200    7.209400    7.063800 L2
Au      14.152000    7.209400    7.063800 L2
Au      3.329900    0.000000    9.418400 L2
Au      8.324700    0.000000    9.418400 L2
Au      5.827300    1.441900    9.418400 L2
Au      10.822100    1.441900    9.418400 L2
Au      8.324700    2.883800    9.418400 L2
Au      13.319500    2.883800    9.418400 L2
Au      5.827300    4.325600    9.418400 L2
Au      10.822100    4.325600    9.418400 L2
Au      8.324700    5.767500    9.418400 L2
Au      13.319500    5.767500    9.418400 L2
Au      10.822100    7.209400    9.418400 L2
Au      15.816900    7.209400    9.418400 L2
Au      0.000000    0.000000    11.7729959 L2
Au      4.994800    0.000000    11.7729959 L2
Au      2.497400    1.441900    11.7729959 L2
Au      7.492200    1.441900    11.7729959 L2
Au      4.994800    2.883800    11.7729959 L2
Au      9.989600    2.883800    11.7729959 L2
Au      2.497400    4.325600    11.7729959 L2
Au      7.492200    4.325600    11.7729959 L2
Au      4.994800    5.767500    11.7729959 L2
Au      9.989600    5.767500    11.7729959 L2
Au      7.492200    7.209400    11.7729959 L2
Au      12.487000    7.209400    11.7729959 L2
Au      1.664900    0.000000    14.127601 L1
Au      6.659800    0.000000    14.127601 L1
Au      4.162300    1.441900    14.127601 L1
Au      9.157200    1.441900    14.127601 L1
Au      6.659800    2.883800    14.127601 L1
Au      11.654600    2.883800    14.127601 L1
Au      4.162300    4.325600    14.127601 L1
Au      9.157200    4.325600    14.127601 L1
Au      6.659800    5.767500    14.127601 L1
Au      11.654600    5.767500    14.127601 L1
Au      9.157200    7.209400    14.127601 L1
Au      14.152000    7.209400    14.127601 L1
Au      3.329900    0.000000    16.482201 L1
Au      8.324700    0.000000    16.482201 L1
Au      5.827300    1.441900    16.482201 L1
Au      10.822100    1.441900    16.482201 L1
Au      8.324700    2.883800    16.482201 L1
Au      13.319500    2.883800    16.482201 L1
Au      5.827300    4.325600    16.482201 L1
Au      10.822100    4.325600    16.482201 L1
Au      8.324700    5.767500    16.482201 L1
Au      13.319500    5.767500    16.482201 L1
Au      10.822100    7.209400    16.482201 L1
Au      15.816900    7.209400    16.482201 L1
Au      0.000000    0.000000    18.836800 L1
Au      4.994800    0.000000    18.836800 L1
Au      2.497400    1.441900    18.836800 L1
Au      7.492200    1.441900    18.836800 L1
Au      4.994800    2.883800    18.836800 L1
Au      9.989600    2.883800    18.836800 L1
Au      2.497400    4.325600    18.836800 L1
Au      7.492200    4.325600    18.836800 L1
Au      4.994800    5.767500    18.836800 L1
Au      9.989600    5.767500    18.836800 L1
Au      7.492200    7.209400    18.836800 L1
Au      12.487000    7.209400    18.836800 L1 
Au    1.6649000000    0.0000000000    21.1914    L0
Au    6.6598000000    0.0000000000    21.1914    L0
Au    4.1623000000    1.4419000000    21.1914    L0
Au    9.1572000000    1.4419000000    21.1914    L0
Au    6.6598000000    2.8838000000    21.1914    L0
Au    11.6546000000    2.8838000000    21.1914    L0
Au    4.1623000000    4.3256000000    21.1914    L0
Au    9.1572000000    4.3256000000    21.1914    L0
Au    6.6598000000    5.7675000000    21.1914    L0
Au    11.6546000000    5.7675000000    21.1914    L0
Au    9.1572000000    7.2094000000    21.1914    L0
Au    14.1520000000    7.2094000000    21.1914    L0
Au    3.3299000000    0.0000000000    23.546000000000003    L0
Au    8.3247000000    0.0000000000    23.546000000000003    L0
Au    5.8273000000    1.4419000000    23.546000000000003    L0
Au    10.8221000000    1.4419000000    23.546000000000003    L0
Au    8.3247000000    2.8838000000    23.546000000000003    L0
Au    13.3195000000    2.8838000000    23.546000000000003    L0
Au    5.8273000000    4.3256000000    23.546000000000003    L0
Au    10.8221000000    4.3256000000    23.546000000000003    L0
Au    8.3247000000    5.7675000000    23.546000000000003    L0
Au    13.3195000000    5.7675000000    23.546000000000003    L0
Au    10.8221000000    7.2094000000    23.546000000000003    L0
Au    15.8169000000    7.2094000000    23.546000000000003    L0
Au    0.0000000000    0.0000000000    25.9005    L0
Au    4.9948000000    0.0000000000    25.9005    L0
Au    2.4974000000    1.4419000000    25.9005    L0
Au    7.4922000000    1.4419000000    25.9005    L0
Au    4.9948000000    2.8838000000    25.9005    L0
Au    9.9896000000    2.8838000000    25.9005    L0
Au    2.4974000000    4.3256000000    25.9005    L0
Au    7.4922000000    4.3256000000    25.9005    L0
Au    4.9948000000    5.7675000000    25.9005    L0
Au    9.9896000000    5.7675000000    25.9005    L0
Au    7.4922000000    7.2094000000    25.9005    L0
Au    12.4870000000    7.2094000000    25.9005    L0
S    8.8828058815    1.9479901832    28.066530820100002    S
C    8.1704921286    3.1326397539    29.163220785900002    S
C    8.2136891708    2.9023850265    30.4886959078    S
H    7.6992737012    4.0201514125    28.733372485    S
C    7.6330631584    3.7685903903    31.5633115832    S
C    8.6832061001    4.2081716959    32.6055042357    S
C    8.0651000360    4.6315566533    33.9422329888    S
H    9.2927745662    5.0238861847    32.182988994400006    S
H    9.3813943566    3.3738368171    32.7898498536    S
C    9.1229501100    5.1330927852    34.945121774300006    S
H    7.5374060538    3.7673598356    34.3799832248    S
H    7.3021651891    5.4112352478    33.7860149333    S
C    8.6038194702    5.2298644673    36.3659306659    S
H    9.4881104594    6.1227620486    34.6238606876    S
H    9.9860496474    4.4518211235    34.938231021    S
C    9.0503088150    4.4095204305    37.3748233371    S
C    8.4922458180    4.4407239019    38.7843064982    S
C    9.5478847178    4.6302759164    39.8861995442    S
H    7.9691862098    3.4845078369    38.964356315100005    S
H    7.7325222131    5.2330245464    38.8442604925    S
C    8.9330999644    4.5878053598    41.288293935    S
H    10.0706887941    5.5889083747    39.7322883241    S
H    10.3120292115    3.8417849548    39.7933425473    S
C    9.9930461981    4.6665957446    42.4039687781    S
H    8.3529031882    3.6586592159    41.4080163873    S
H    8.2194859938    5.4188101151    41.4127453054    S
C    9.4126372170    4.6142779769    43.7854175473    S
H    10.5682184131    5.5977451187    42.3057201915    S
H    10.7043905423    3.8313534917    42.2884371828    S
C    9.3611085698    5.5943220430    44.709629418000006    S
C    8.7264012216    5.5560866409    46.0663201097    S
C    9.7096661114    5.6154958156    47.250348065    S
H    8.1216896304    4.6413241892    46.1406964656    S
H    8.0287560239    6.4073215682    46.141543408100006    S
C    8.9557922878    5.5510909821    48.580736038400005    S
H    10.3031078142    6.5419784305    47.1943779767    S
H    10.4227885506    4.7780086248    47.1790599583    S
C    9.8823287088    5.6700078436    49.8052604546    S
H    8.3981628141    4.6022101956    48.642355815900004    S
H    8.2014443853    6.3535333706    48.6175066771    S
C    9.1621899622    5.5217209093    51.1167621717    S
H    10.3809138799    6.6582384694    49.776665587    S
H    10.6889096424    4.9237103047    49.7537817521    S
C    9.6506005519    4.7317045001    52.2081233725    S
C    8.9667241194    4.5095464611    53.3863170299    S
H    7.9826774713    4.9473852426    53.5482674103    S
H    9.3905592357    3.8771058688    54.1624367817    S
C    10.0690865585    3.4496200345    37.1290938315    S
C    10.9465427433    2.6158519813    36.995376178200004    S
H    11.7352168781    1.9053015725    36.861354258000006    S
C    7.5905825772    6.1962057169    36.5996185155    S
C    6.7260539495    7.0443025964    36.7244708049    S
H    5.9503227738    7.7687648635    36.8544930823    S
C    10.9428203567    4.1208031407    52.0593576484    S
C    7.9308590678    6.1756167671    51.270806099400005    S
N    11.9982537214    3.6284170688    51.951496412400004    S
N    6.8977440168    6.7321049713    51.3754949745    S
Cl    10.0893546175    7.1504673266    44.3218120278    S
Cl    8.7054928576    3.0522639710    44.1878499625    S
H    7.1259563058    4.6451212774    31.1312534953    S
H    6.8542707061    3.1808600818    32.0846960967    S
H    8.7109428704    1.9887614644    30.8352958203    S
Au    9.1478900000    5.0295700000    57.56051    R0
Au    2.4880900000    -0.7379300000    59.915113    R0
Au    7.4829900000    -0.7379300000    59.915113    R0
Au    4.9854900000    0.7039700000    59.915113    R0
Au    9.9803900000    0.7039700000    59.915113    R0
Au    7.4829900000    2.1458700000    59.915113    R0
Au    12.4777900000    2.1458700000    59.915113    R0
Au    4.9854900000    3.5876700000    59.915113    R0
Au    9.9803900000    3.5876700000    59.915113    R0
Au    7.4829900000    5.0295700000    59.915113    R0
Au    12.4777900000    5.0295700000    59.915113    R0
Au    9.9803900000    6.4714700000    59.915113    R0
Au    14.9751900000    6.4714700000    59.915113    R0
Au    4.1530900000    -0.7379300000    62.269715000000005    R0
Au    9.1478900000    -0.7379300000    62.269715000000005    R0
Au    6.6504900000    0.7039700000    62.269715000000005    R0
Au    11.6452900000    0.7039700000    62.269715000000005    R0
Au    9.1478900000    2.1458700000    62.269715000000005    R0
Au    14.1426900000    2.1458700000    62.269715000000005    R0
Au    6.6504900000    3.5876700000    62.269715000000005    R0
Au    11.6452900000    3.5876700000    62.269715000000005    R0
Au    9.1478900000    5.0295700000    62.269715000000005    R0
Au    14.1426900000    5.0295700000    62.269715000000005    R0
Au    11.6452900000    6.4714700000    62.269715000000005    R0
Au    16.6400900000    6.4714700000    62.269715000000005    R0
Au    0.8231900000    -0.7379300000    64.624112    R0
Au    5.8179900000    -0.7379300000    64.624311    R0
Au    3.3205900000    0.7039700000    64.624311    R0
Au    8.3153900000    0.7039700000    64.624311    R0
Au    5.8179900000    2.1458700000    64.624311    R0
Au    10.8127900000    2.1458700000    64.624311    R0
Au    3.3205900000    3.5876700000    64.624311    R0
Au    8.3153900000    3.5876700000    64.624311    R0
Au    5.8179900000    5.0295700000    64.624311    R0
Au    10.8127900000    5.0295700000    64.624311    R0
Au    8.3153900000    6.4714700000    64.624311    R0
Au    13.3101900000    6.4714700000    64.624311    R0
Au    2.4880900000000006    -0.7379300000000004    66.97891100000001    R1
Au    7.48299    -0.7379300000000004    66.97891100000001    R1
Au    4.98549    0.70397    66.97891100000001    R1
Au    9.98039    0.70397    66.97891100000001    R1
Au    7.48299    2.1458699999999995    66.97891100000001    R1
Au    12.47779    2.1458699999999995    66.97891100000001    R1
Au    4.98549    3.5876699999999992    66.97891100000001    R1
Au    9.98039    3.5876699999999992    66.97891100000001    R1
Au    7.48299    5.02957    66.97891100000001    R1
Au    12.47779    5.02957    66.97891100000001    R1
Au    9.98039    6.471469999999999    66.97891100000001    R1
Au    14.97519    6.471469999999999    66.97891100000001    R1
Au    4.153090000000001    -0.7379300000000004    69.33351    R1
Au    9.14789    -0.7379300000000004    69.33351    R1
Au    6.6504900000000005    0.70397    69.33351    R1
Au    11.645290000000001    0.70397    69.33351    R1
Au    9.14789    2.1458699999999995    69.33351    R1
Au    14.14269    2.1458699999999995    69.33351    R1
Au    6.6504900000000005    3.5876699999999992    69.33351    R1
Au    11.645290000000001    3.5876699999999992    69.33351    R1
Au    9.14789    5.02957    69.33351    R1
Au    14.14269    5.02957    69.33351    R1
Au    11.645290000000001    6.471469999999999    69.33351    R1
Au    16.64009    6.471469999999999    69.33351    R1
Au    0.8231900000000003    -0.7379300000000004    71.68810500000002    R1
Au    5.81799    -0.7379300000000004    71.68810500000002    R1
Au    3.32059    0.70397    71.68810500000002    R1
Au    8.31539    0.70397    71.68810500000002    R1
Au    5.81799    2.1458699999999995    71.68810500000002    R1
Au    10.81279    2.1458699999999995    71.68810500000002    R1
Au    3.32059    3.5876699999999992    71.68810500000002    R1
Au    8.31539    3.5876699999999992    71.68810500000002    R1
Au    5.81799    5.02957    71.68810500000002    R1
Au    10.81279    5.02957    71.68810500000002    R1
Au    8.31539    6.471469999999999    71.68810500000002    R1
Au    13.31019    6.471469999999999    71.68810500000002    R1
Au    2.4880900000000006    -0.7379300000000004    74.04270980000001    R2
Au    7.48299    -0.7379300000000004    74.04270980000001    R2
Au    4.98549    0.70397    74.04270980000001    R2
Au    9.98039    0.70397    74.04270980000001    R2
Au    7.48299    2.1458699999999995    74.04270980000001    R2
Au    12.47779    2.1458699999999995    74.04270980000001    R2
Au    4.98549    3.5876699999999992    74.04270980000001    R2
Au    9.98039    3.5876699999999992    74.04270980000001    R2
Au    7.48299    5.02957    74.04270980000001    R2
Au    12.47779    5.02957    74.04270980000001    R2
Au    9.98039    6.471469999999999    74.04270980000001    R2
Au    14.97519    6.471469999999999    74.04270980000001    R2
Au    4.153090000000001    -0.7379300000000004    76.3973093    R2
Au    9.14789    -0.7379300000000004    76.3973093    R2
Au    6.6504900000000005    0.70397    76.3973093    R2
Au    11.645290000000001    0.70397    76.3973093    R2
Au    9.14789    2.1458699999999995    76.3973093    R2
Au    14.14269    2.1458699999999995    76.3973093    R2
Au    6.6504900000000005    3.5876699999999992    76.3973093    R2
Au    11.645290000000001    3.5876699999999992    76.3973093    R2
Au    9.14789    5.02957    76.3973093    R2
Au    14.14269    5.02957    76.3973093    R2
Au    11.645290000000001    6.471469999999999    76.3973093    R2
Au    16.64009    6.471469999999999    76.3973093    R2
Au    0.8231900000000003    -0.7379300000000004    78.75191630000002    R2
Au    5.81799    -0.7379300000000004    78.75191630000002    R2
Au    3.32059    0.70397    78.75191630000002    R2
Au    8.31539    0.70397    78.75191630000002    R2
Au    5.81799    2.1458699999999995    78.75191630000002    R2
Au    10.81279    2.1458699999999995    78.75191630000002    R2
Au    3.32059    3.5876699999999992    78.75191630000002    R2
Au    8.31539    3.5876699999999992    78.75191630000002    R2
Au    5.81799    5.02957    78.75191630000002    R2
Au    10.81279    5.02957    78.75191630000002    R2
Au    8.31539    6.471469999999999    78.75191630000002    R2
Au    13.31019    6.471469999999999    78.75191630000002    R2
Au    2.4880900000000006    -0.7379300000000004    81.10650980000001    R3
Au    7.48299    -0.7379300000000004    81.10650980000001    R3
Au    4.98549    0.70397    81.10650980000001    R3
Au    9.98039    0.70397    81.10650980000001    R3
Au    7.48299    2.1458699999999995    81.10650980000001    R3
Au    12.47779    2.1458699999999995    81.10650980000001    R3
Au    4.98549    3.5876699999999992    81.10650980000001    R3
Au    9.98039    3.5876699999999992    81.10650980000001    R3
Au    7.48299    5.02957    81.10650980000001    R3
Au    12.47779    5.02957    81.10650980000001    R3
Au    9.98039    6.471469999999999    81.10650980000001    R3
Au    14.97519    6.471469999999999    81.10650980000001    R3
Au    4.153090000000001    -0.7379300000000004    83.46110930000002    R3
Au    9.14789    -0.7379300000000004    83.46110930000002    R3
Au    6.6504900000000005    0.70397    83.46110930000002    R3
Au    11.645290000000001    0.70397    83.46110930000002    R3
Au    9.14789    2.1458699999999995    83.46110930000002    R3
Au    14.14269    2.1458699999999995    83.46110930000002    R3
Au    6.6504900000000005    3.5876699999999992    83.46110930000002    R3
Au    11.645290000000001    3.5876699999999992    83.46110930000002    R3
Au    9.14789    5.02957    83.46110930000002    R3
Au    14.14269    5.02957    83.46110930000002    R3
Au    11.645290000000001    6.471469999999999    83.46110930000002    R3
Au    16.64009    6.471469999999999    83.46110930000002    R3
Au    0.8231900000000003    -0.7379300000000004    85.8157163    R3
Au    5.81799    -0.7379300000000004    85.8157163    R3
Au    3.32059    0.70397    85.8157163    R3
Au    8.31539    0.70397    85.8157163    R3
Au    5.81799    2.1458699999999995    85.8157163    R3
Au    10.81279    2.1458699999999995    85.8157163    R3
Au    3.32059    3.5876699999999992    85.8157163    R3
Au    8.31539    3.5876699999999992    85.8157163    R3
Au    5.81799    5.02957    85.8157163    R3
Au    10.81279    5.02957    85.8157163    R3
Au    8.31539    6.471469999999999    85.8157163    R3
Au    13.31019    6.471469999999999    85.8157163    R3
