36

C          3.57189        5.76415        9.64398
N          3.58336        5.69456       10.53100
H          3.56166        5.82617        8.63599
C         10.50070        5.32260       17.29534
C         10.62199        6.54286       16.60800
C         11.43561        6.61981       15.47915
C         12.14260        5.49920       15.00838
C         11.26916        4.21662       16.88824
C         12.07095        4.31168       15.75458
C         11.50320        5.33872       10.03225
H         11.50273        7.56570       14.93758
S          9.19665        5.05414       18.45874
H         11.20428        3.27964       17.44161
H         12.63850        3.43739       15.42956
H         10.05486        7.41178       16.94225
C         11.24880        6.56688        9.40079
C         10.21793        6.70578        8.47665
C          9.39940        5.60336        8.16722
C          9.67411        4.35351        8.74782
C         10.71487        4.23329        9.66879
H         10.02607        7.67052        8.00700
H         11.86584        7.43462        9.64306
H          9.06140        3.48955        8.49004
H         10.90977        3.25989       10.12384
S          7.92678        5.90045        7.22939
C         12.86636        5.53168       13.68543
C         12.53066        5.24806       11.13294
C         11.86620        5.40209       12.51695
H         13.28638        6.03731       10.99696
H         13.06132        4.28416       11.08675
H         13.43254        6.47039       13.57669
H         13.59680        4.70912       13.64177
H         11.20548        4.53957       12.69724
H         11.21010        6.28662       12.50760
H          8.57591        6.23471       18.72432
H          7.92146        7.18728        6.78934
