155

Au     0.000000     0.000000     0.000000     L3
Au     8.760000     0.000000     0.000000     L3
Au     4.380000     7.586382     0.000000     L3
Au     13.140000     7.586382     0.000000     L3
Au     2.920000     0.000000     0.000000     L3
Au     11.680000     0.000000     0.000000     L3
Au     7.300000     7.586382     0.000000     L3
Au     16.059999     7.586382     0.000000     L3
Au     5.840000     0.000000     0.000000     L3
Au     10.220000     7.586382     0.000000     L3
Au     1.460000     2.528794     0.000000     L3
Au     10.220000     2.528794     0.000000     L3
Au     5.840000     10.115176     0.000000     L3
Au     14.600000     10.115176     0.000000     L3
Au     4.380000     2.528794     0.000000     L3
Au     13.140000     2.528794     0.000000     L3
Au     8.760000     10.115176     0.000000     L3
Au     17.520000     10.115176     0.000000     L3
Au     7.300000     2.528794     0.000000     L3
Au     11.680000     10.115176     0.000000     L3
Au     2.920000     5.057588     0.000000     L3
Au     11.680000     5.057588     0.000000     L3
Au     5.840000     5.057588     0.000000     L3
Au     14.600000     5.057588     0.000000     L3
Au     8.760000     5.057588     0.000000     L3
Au     1.460000     0.842931     2.384170     L3
Au     10.220000     0.842931     2.384170     L3
Au     5.840000     8.429314     2.384170     L3
Au     14.600000     8.429314     2.384170     L3
Au     4.380000     0.842931     2.384170     L3
Au     13.140000     0.842931     2.384170     L3
Au     8.760000     8.429314     2.384170     L3
Au     17.520000     8.429314     2.384170     L3
Au     7.300000     0.842931     2.384170     L3
Au     11.680000     8.429314     2.384170     L3
Au     2.920000     3.371726     2.384170     L3
Au     11.680000     3.371726     2.384170     L3
Au     7.300000     10.958108     2.384170     L3
Au     16.059999     10.958108     2.384170     L3
Au     5.840000     3.371726     2.384170     L3
Au     14.600000     3.371726     2.384170     L3
Au     10.220000     10.958108     2.384170     L3
Au     18.980000     10.958108     2.384170     L3
Au     8.760000     3.371726     2.384170     L3
Au     13.140000     10.958108     2.384170     L3
Au     4.380000     5.900520     2.384170     L3
Au     13.140000     5.900520     2.384170     L3
Au     7.300000     5.900520     2.384170     L3
Au     16.059999     5.900520     2.384170     L3
Au     10.220000     5.900520     2.384170     L3
Au     8.760000     1.685863     4.768340     L3
Au     13.140000     9.272245     4.768340     L3
Au     2.920000     1.685863     4.768340     L3
Au     11.680000     1.685863     4.768340     L3
Au     7.300000     9.272245     4.768340     L3
Au     16.059999     9.272245     4.768340     L3
Au     5.840000     1.685863     4.768340     L3
Au     14.600000     1.685863     4.768340     L3
Au     10.220000     9.272245     4.768340     L3
Au     18.980000     9.272245     4.768340     L3
Au     10.220000     4.214657     4.768340     L3
Au     14.600000     11.801040     4.768340     L3
Au     4.380000     4.214657     4.768340     L3
Au     13.140000     4.214657     4.768340     L3
Au     8.760000     11.801040     4.768340     L3
Au     17.520000     11.801040     4.768340     L3
Au     7.300000     4.214657     4.768340     L3
Au     16.059999     4.214657     4.768340     L3
Au     11.680000     11.801040     4.768340     L3
Au     20.440001     11.801040     4.768340     L3
Au     11.680000     6.743451     4.768340     L3
Au     5.840000     6.743451     4.768340     L3
Au     14.600000     6.743451     4.768340     L3
Au     8.760000     6.743451     4.768340     L3
Au     17.520000     6.743451     4.768340     L3
  C        11.0756632278        5.6337005529       22.1780774594
  C        11.7410438279        6.7006138506       21.5506125105
  C        12.0562668979        6.6142979728       20.1968328460
  C        11.7303751290        5.4771390929       19.4381405679
  C        10.7780731858        4.4701235640       21.4477629346
  C        11.1038833935        4.4045367975       20.0954331342
  C         9.4429971549        6.4314939466       10.8475788350
  H        12.5629901356        7.4538311106       19.7160111240
  S        10.4063944959        5.8368791305       23.8057740668
  H        10.2767372503        3.6361964874       21.9384229105
  H        10.8603704939        3.4999926640       19.5344276985
  H        11.9864131192        7.5960420777       22.1216270276
  C        10.1996907125        7.3740963407       10.1304830121
  C        10.6778096301        7.1017210913        8.8497779896
  C        10.4068083071        5.8548823145        8.2598277783
  C         9.5804805564        4.9337261207        8.9265069140
  C         9.1145234192        5.2254070281       10.2059899228
  H        11.2898469309        7.8321867794        8.3203881615
  H        10.4431357434        8.3323033383       10.5942714416
  H         9.3421765701        3.9814872612        8.4529126590
  H         8.5026638335        4.4880734292       10.7292022188
  S        11.3353381172        5.2971159827        6.8599145954
  C        11.9968946206        5.4248664476       17.9545740482
  C         9.0841501586        6.6552021359       12.2960151574
  C        10.2120213357        6.1634442145       13.2293307438
  C        10.8025573930        5.9129590644       17.1059277595
  H        12.8796078386        6.0384343873       17.7149051085
  H        12.2417969260        4.3916216478       17.6606083551
  H         8.1533444066        6.1180400572       12.5373015798
  H         8.8940881967        7.7239308882       12.4825849746
  C        11.0747698839        5.8273134624       15.6004616999
  H        10.5600224644        6.9516635838       17.3851262602
  H         9.9115035276        5.3139371359       17.3568556791
  C         9.9194669707        6.3297289125       14.7242676294
  H         8.9956246490        5.7842940687       14.9833016436
  H         9.7199993661        7.3916160066       14.9489287522
  H        11.9857652931        6.4024638513       15.3599181581
  H        11.3008029769        4.7803530578       15.3327766895
  H        11.1412544177        6.6995602339       12.9741286950
  H        10.4098494733        5.1005395246       13.0126369922
Au    8.760002    1.685863   25.873931003965176 R0
Au   13.140000    9.272246   25.873931003965176 R0
Au    2.920000    1.685863   25.873931003965176 R0
Au   11.680000    1.685863   25.873931003965176 R0
Au    7.300000    9.272246   25.873931003965176 R0
Au   16.059999    9.272246   25.873931003965176 R0
Au    5.840001    1.685863   25.873931003965176 R0
Au   14.600000    1.685863   25.873931003965176 R0
Au   10.220000    9.272246   25.873931003965176 R0
Au   18.980000    9.272246   25.873931003965176 R0
Au   10.220001    4.214657   25.873931003965176 R0
Au   14.600000   11.801040   25.873931003965176 R0
Au    4.380000    4.214657   25.873931003965176 R0
Au   13.140000    4.214657   25.873931003965176 R0
Au    8.760000   11.801040   25.873931003965176 R0
Au   17.520000   11.801040   25.873931003965176 R0
Au    7.300000    4.214657   25.873931003965176 R0
Au   16.059999    4.214657   25.873931003965176 R0
Au   11.680000   11.801040   25.873931003965176 R0
Au   20.440001   11.801040   25.873931003965176 R0
Au   11.680000    6.743451   25.873931003965176 R0
Au    5.840000    6.743451   25.873931003965176 R0
Au   14.600000    6.743451   25.873931003965176 R0
Au    8.760000    6.743451   25.873931003965176 R0
Au   17.520000    6.743451   25.873931003965176 R0
Au    1.460000    0.842931   28.258101003965177 R0
Au   10.220000    0.842931   28.258101003965177 R0
Au    5.840001    8.429314   28.258101003965177 R0
Au   14.600000    8.429314   28.258101003965177 R0
Au    4.380000    0.842931   28.258101003965177 R0
Au   13.140001    0.842931   28.258101003965177 R0
Au    8.760000    8.429314   28.258101003965177 R0
Au   17.520000    8.429314   28.258101003965177 R0
Au    7.300001    0.842931   28.258101003965177 R0
Au   11.680000    8.429314   28.258101003965177 R0
Au    2.920000    3.371726   28.258101003965177 R0
Au   11.680001    3.371726   28.258101003965177 R0
Au    7.300000   10.958109   28.258101003965177 R0
Au   16.059998   10.958109   28.258101003965177 R0
Au    5.840000    3.371726   28.258101003965177 R0
Au   14.600000    3.371726   28.258101003965177 R0
Au   10.220000   10.958109   28.258101003965177 R0
Au   18.980000   10.958109   28.258101003965177 R0
Au    8.760000    3.371726   28.258101003965177 R0
Au   13.139999   10.958109   28.258101003965177 R0
Au    4.380000    5.900520   28.258101003965177 R0
Au   13.140000    5.900520   28.258101003965177 R0
Au    7.300000    5.900520   28.258101003965177 R0
Au   16.059999    5.900520   28.258101003965177 R0
Au   10.220000    5.900520   28.258101003965177 R0
Au    0.000000    0.000000   30.642271003965178 R0
Au    8.760000    0.000000   30.642271003965178 R0
Au    4.380000    7.586382   30.642271003965178 R0
Au   13.139999    7.586382   30.642271003965178 R0
Au    2.920000    0.000000   30.642271003965178 R0
Au   11.680000    0.000000   30.642271003965178 R0
Au    7.300000    7.586382   30.642271003965178 R0
Au   16.059999    7.586382   30.642271003965178 R0
Au    5.840000    0.000000   30.642271003965178 R0
Au   10.220000    7.586382   30.642271003965178 R0
Au    1.460000    2.528794   30.642271003965178 R0
Au   10.220000    2.528794   30.642271003965178 R0
Au    5.840000   10.115176   30.642271003965178 R0
Au   14.600000   10.115176   30.642271003965178 R0
Au    4.380000    2.528794   30.642271003965178 R0
Au   13.140000    2.528794   30.642271003965178 R0
Au    8.760000   10.115176   30.642271003965178 R0
Au   17.520000   10.115176   30.642271003965178 R0
Au    7.300000    2.528794   30.642271003965178 R0
Au   11.680000   10.115176   30.642271003965178 R0
Au    2.920000    5.057588   30.642271003965178 R0
Au   11.680000    5.057588   30.642271003965178 R0
Au    5.840000    5.057588   30.642271003965178 R0
Au   14.600000    5.057588   30.642271003965178 R0
Au    8.760000    5.057588   30.642271003965178 R0
