36

C        3.252241    3.548232   -0.648008
N        2.514611    4.217392   -1.260978
H        3.941745    2.921899   -0.087487
C       -4.689912    0.719756    0.260236
C       -4.368690   -0.273182    1.203455
C       -3.474099   -1.295776    0.866634
C       -2.878562   -1.361282   -0.405778
C       -4.131594    0.646490   -1.030438
C       -3.238715   -0.380619   -1.349528
C        2.077293   -1.835939   -0.283880
H       -3.220766   -2.051194    1.620142
S       -5.755673    2.102695    0.626408
H       -4.386026    1.401466   -1.781635
H       -2.798309   -0.411305   -2.353214
H       -4.805024   -0.243233    2.207776
C        2.544293   -1.765842    1.042062
C        3.600039   -0.921062    1.401744
C        4.208854   -0.110485    0.427648
C        3.779748   -0.192190   -0.909329
C        2.728481   -1.049912   -1.252102
H        3.940400   -0.887632    2.442171
H        2.062023   -2.374510    1.816016
H        4.252715    0.424580   -1.681022
H        2.389904   -1.087379   -2.293896
S        5.525480    1.040950    0.814361
C       -1.776478   -2.354808   -0.702620
C        0.822650   -2.609639   -0.623860
C       -0.410468   -1.714006   -0.381275
H        0.748979   -3.523165   -0.004124
H        0.845090   -2.938112   -1.679803
H       -1.910139   -3.273726   -0.101174
H       -1.803262   -2.660239   -1.765787
H       -0.301993   -0.788699   -0.977915
H       -0.410891   -1.385671    0.675369
H       -6.080683    1.717291    1.888093
H        5.346573    1.041149    2.161271
