44
Mg2
Fe    1.595652    0.921248   10.001697
Fe    3.191304    3.684995   10.001697
Fe    0.000002    1.842495   37.539124
Fe    1.595654    4.606242   37.539124
Mg    0.000002    1.842495   12.067524
Mg   -1.595648    4.606242   12.067524
Mg    3.191304    1.842495   12.067524
Mg    1.595654    4.606242   12.067524
Mg    0.000002    1.842495   17.295389
Mg   -1.595648    4.606242   17.295389
Mg    3.191304    1.842495   17.295389
Mg    1.595654    4.606242   17.295389
Mg    0.000002    1.842495   22.478760
Mg   -1.595648    4.606242   22.478760
Mg    3.191304    1.842495   22.478760
Mg    1.595654    4.606242   22.478760
Mg    0.000002    1.842495   27.656389
Mg   -1.595648    4.606242   27.656389
Mg    3.191304    1.842495   27.656389
Mg    1.595654    4.606242   27.656389
Mg    0.000002    1.842495   32.845600
Mg   -1.595648    4.606242   32.845600
Mg    3.191304    1.842495   32.845600
Mg    1.595654    4.606242   32.845600
Mg    1.595652    0.921248   14.696418
Mg    0.000002    3.684995   14.696418
Mg    4.786954    0.921248   14.696418
Mg    3.191304    3.684995   14.696418
Mg    1.595652    0.921248   19.888685
Mg    0.000002    3.684995   19.888685
Mg    4.786954    0.921248   19.888685
Mg    3.191304    3.684995   19.888685
Mg    1.595652    0.921248   25.067257
Mg    0.000002    3.684995   25.067257
Mg    4.786954    0.921248   25.067257
Mg    3.191304    3.684995   25.067257
Mg    1.595652    0.921248   30.248135
Mg    0.000002    3.684995   30.248135
Mg    4.786954    0.921248   30.248135
Mg    3.191304    3.684995   30.248135
Mg    1.595652    0.921248   35.473476
Mg    0.000002    3.684995   35.473476
Mg    4.786954    0.921248   35.473476
Mg    3.191304    3.684995   35.473476
