41  

C         6.4562250484        3.6026076513        7.7735130101
  C         7.5177518107        2.7733550886        8.2414947181
  C         8.6384582192        3.3865983470        8.8351658197
  C         8.7399306253        4.7699291526        8.9735831355
  C         6.5570206870        4.9966606184        7.9464880812
  C         7.6778243215        5.5773347015        8.5337215274
  C         9.9717328142        5.3950048417        9.5774616665
  N         9.8332316847        5.5694358308       11.0350642837
  H        10.1801096309        6.3600142522        9.0710247426
  H        10.8443714078        4.7484574425        9.3884624870
  C        10.9529821004        6.2776312307       11.6517882355
  H         8.9600157058        6.0656615667       11.2282946820
  H         9.4622785490        2.7532199033        9.1722955437
  S         5.0276097050        2.8796770349        7.0196734601
  H         5.7453524225        5.6230856968        7.5752582211
  H         7.7485997587        6.6640039810        8.6076880894
  N         7.4488565143        1.3927286048        8.1386215338
  H         6.8022289594        1.0469942917        7.4229551111
  H         8.3511624659        0.9187088502        8.1008031366
  C        13.3055061552        5.9224718168       12.8282739278
  C        13.4383908310        5.3816683083       14.1560766848
  C        15.5700032807        3.4149202374       12.6329704658
  C        14.7357630384        4.7390408740       14.3459991351
  C        14.1478326197        4.5361110451       11.1172863814
  C        15.4034944557        4.7906326231       13.0895767045
  C        12.0315438152        5.3237360941       12.1347194900
  C        14.4883324002        5.4623721358       12.1641223722
  C        12.4154659084        4.4052489916       14.4087283532
  C        14.5062128580        3.3308902466       14.6702627637
  C        14.8360687851        3.2606220319       11.4020449974
  C        12.7397623282        4.3486439732       11.1410806698
  C        11.6576214930        4.2585395161       13.2136043982
  C        13.0831766751        3.1279910225       14.7362035841
  C        15.0828509067        2.4808569788       13.6373003147
  C        13.8186150630        2.2891997484       11.6492473048
  C        12.5327037173        2.9631265216       11.4992933880
  C        11.8629787709        2.9082529535       12.7595312060
  C        12.7441357957        2.2056581203       13.6952026890
  C        13.9532951434        1.7840641834       13.0131069122
  H        11.4112583193        7.0256921350       10.9739532103
  H        10.5832780871        6.8347206433       12.5248014865