36
XYZ file
Mg    0.000002    1.842495   12.069993
Mg    3.191304    1.842499   12.069993
Mg   -1.595608    4.606180   12.069993
Mg    1.595694    4.606184   12.069993
Mg    0.000002    1.842495   17.303823
Mg    3.191304    1.842499   17.303823
Mg   -1.595608    4.606180   17.303823
Mg    1.595694    4.606184   17.303823
Mg    0.000002    1.842495   22.492540
Mg    3.191304    1.842499   22.492540
Mg   -1.595608    4.606180   22.492540
Mg    1.595694    4.606184   22.492540
Mg    0.000002    1.842495   27.690714
Mg    3.191304    1.842499   27.690714
Mg   -1.595608    4.606180   27.690714
Mg    1.595694    4.606184   27.690714
Fe    0.000002    1.842495   32.390865
Fe    1.595694    4.606184   32.390865
Fe    1.595652    0.921248   10.000000
Fe    3.191344    3.684937   10.000000
Mg    1.595652    0.921248   14.700844
Mg    4.786954    0.921252   14.700844
Mg    0.000042    3.684933   14.700844
Mg    3.191344    3.684937   14.700844
Mg    1.595652    0.921248   19.900326
Mg    4.786954    0.921252   19.900326
Mg    0.000042    3.684933   19.900326
Mg    3.191344    3.684937   19.900326
Mg    1.595652    0.921248   25.088457
Mg    4.786954    0.921252   25.088457
Mg    0.000042    3.684933   25.088457
Mg    3.191344    3.684937   25.088457
Mg    1.595652    0.921248   30.321102
Mg    4.786954    0.921252   30.321102
Mg    0.000042    3.684933   30.321102
Mg    3.191344    3.684937   30.321102
