38

Mg      -0.034712114   1.822395373  12.140610115
Mg       3.226062831   1.822403617  12.140584622
Mg      -1.595631655   4.606213917  11.805166721
Mg       1.595685690   4.646315937  12.140610289
Mg       0.001930713   1.843567582  17.300867581
Mg       3.189421056   1.843568292  17.300864376
Mg      -1.595626579   4.606214686  17.301969702
Mg       1.595677537   4.604011976  17.300864924
Mg      -0.000135899   1.842375565  22.494631541
Mg       3.191485311   1.842375479  22.494631741
Mg      -1.595626801   4.606216544  22.492661100
Mg       1.595675480   4.606400791  22.494630425
Mg      -0.011371994   1.835889858  27.696689850
Mg       3.202722924   1.835887974  27.696683070
Mg      -1.595626904   4.606229319  27.673806689
Mg       1.595675392   4.619372323  27.696674900
Fe       0.448342323   2.101304923  32.370575129
Fe       2.742997399   2.101315877  32.370548548
Fe       1.595682873   4.088532371  32.370527512
Fe       1.595641361   1.438894897  10.021114418
Fe       0.448304701   3.426133430  10.021145042
Fe       2.742977671   3.426129330  10.021098519
Mg       1.595675493   0.908058284  14.695093824
Mg       4.786976252   0.921206854  14.717957180
Mg      -0.011365712   3.691539503  14.695081165
Mg       3.202725857   3.691543028  14.695077678
Mg       1.595675384   0.921035095  19.897265703
Mg       4.786977760   0.921217435  19.899237573
Mg      -0.000134094   3.685058497  19.897264966
Mg       3.191485270   3.685057690  19.897264637
Mg       1.595673299   0.923423206  25.090981015
Mg       4.786977234   0.921219526  25.089872587
Mg       0.001932170   3.683864540  25.090978266
Mg       3.189419342   3.683866280  25.090978917
Mg       1.595671463   0.881102718  30.251104421
Mg       4.786976480   0.921214568  30.586482820
Mg      -0.034719238   3.705023458  30.251103908
Mg       3.226075722   3.705027259  30.251089531
