32
XYZ file
Mg    0.000002    1.842495   10.000000
Mg    3.191304    1.842499   10.000000
Fe   -1.595608    4.606180   10.000000
Mg    1.595694    4.606184   10.000000
Mg    0.000002    1.842495   15.205948
Mg    3.191304    1.842499   15.205948
Mg   -1.595608    4.606180   15.205948
Mg    1.595694    4.606184   15.205948
Mg    0.000002    1.842495   20.362453
Mg    3.191304    1.842499   20.362453
Mg   -1.595608    4.606180   20.362453
Mg    1.595694    4.606184   20.362453
Mg    0.000002    1.842495   25.532555
Mg    3.191304    1.842499   25.532555
Mg   -1.595608    4.606180   25.532555
Mg    1.595694    4.606184   25.532555
Mg    1.595652    0.921248   12.618984
Mg    4.786954    0.921252   12.618984
Mg    0.000042    3.684933   12.618984
Mg    3.191344    3.684937   12.618984
Mg    1.595652    0.921248   17.788475
Mg    4.786954    0.921252   17.788475
Mg    0.000042    3.684933   17.788475
Mg    3.191344    3.684937   17.788475
Mg    1.595652    0.921248   22.945206
Mg    4.786954    0.921252   22.945206
Mg    0.000042    3.684933   22.945206
Mg    3.191344    3.684937   22.945206
Mg    1.595652    0.921248   28.151922
Fe    4.786954    0.921252   28.151922
Mg    0.000042    3.684933   28.151922
Mg    3.191344    3.684937   28.151922
