56

C         -1.59301        1.14251      -12.30185
C         -1.54326        2.50709      -11.73636
C         -1.48906        2.85193      -10.30909
C         -1.46944        1.89048       -9.28310
C         -1.55835        0.20631      -11.16129
C         -1.50213        0.56107       -9.74000
C         -1.42943        2.33469       -7.76282
C         -2.41346        1.02433       -5.61774
C         -1.93243        1.23100       -4.13479
C         -1.47584        2.51080       -3.70232
C         -1.07188        2.70443       -2.32213
C         -1.09733        1.66793       -1.34666
C         -1.96240        0.15959       -3.19022
C         -1.53766        0.39808       -1.82881
H         -1.55529        3.37884      -12.36281
H         -1.46611        3.89571       -9.96332
H         -0.74229        3.70332       -2.08880
H         -1.59495       -0.46577       -1.17968
C         -1.70591        0.67931      -13.93312
H         -1.58591       -0.85153      -11.32340
H         -1.49920       -0.21532       -8.97111
C         -0.73283        1.86232        0.08053
C         -1.32314        1.24323       -6.67765
C         -0.23078        0.46571       -6.63660
H         -3.27216        1.70301       -5.83798
H         -2.81278       -0.00534       -5.79725
H         -2.33583        2.94688       -7.54534
H         -0.56019        3.01428       -7.58259
H         -0.13423       -0.32131       -5.89361
H          0.58175        0.61041       -7.34081
C         -0.44708        1.92528        1.24533
C          0.43150        0.93036        3.14443
C          0.73871        0.95053        4.47936
C          0.45607        2.08526        5.26243
C         -0.40110        3.20179        3.27605
C         -0.12267        3.22861        4.66675
H          1.18155        0.05501        4.83670
H         -0.33419        4.07689        5.30989
C         -1.81534        0.34736      -15.25272
C         -1.91433       -0.14927      -16.88019
C         -1.49334       -1.47098      -17.46751
C         -1.61803       -1.88714      -18.86255
C         -2.16386       -1.05118      -19.81305
C         -2.58972        0.22158      -19.37430
C         -2.47473        0.66198      -17.98242
H         -1.04953       -2.28107      -16.91687
H         -1.29852       -2.88039      -19.26112
H         -3.02499        0.88788      -20.12546
H         -2.85770        1.66972      -17.82473
S          0.83681        2.04815        7.00744
S         -2.28706       -1.66547      -21.53865
C         -0.12223        2.03552        2.59198
H         -0.84360        3.97774        2.62739
H          0.60710        0.10225        2.43177
H         -1.43281        3.29724       -4.36917
H         -2.28484       -0.77772       -3.47747
