129

Au    0.000000    0.000000    0.000000    L0
Au    8.760000    0.000000    0.000000    L0
Au    4.380000    7.586382    0.000000    L0
Au    13.140000    7.586382    0.000000    L0
Au    2.920000    0.000000    0.000000    L0
Au    7.300000    7.586382    0.000000    L0
Au    5.840000    0.000000    0.000000    L0
Au    10.220000    7.586382    0.000000    L0
Au    1.460000    2.528794    0.000000    L0
Au    10.220000    2.528794    0.000000    L0
Au    4.380000    2.528794    0.000000    L0
Au    7.300000    2.528794    0.000000    L0
Au    2.920000    5.057588    0.000000    L0
Au    11.680000    5.057588    0.000000    L0
Au    5.840000    5.057588    0.000000    L0
Au    8.760000    5.057588    0.000000    L0
Au    1.460000    0.842931    2.384170    L0
Au    10.220000    0.842931    2.384170    L0
Au    5.840000    8.429314    2.384170    L0
Au    14.600000    8.429314    2.384170    L0
Au    4.380000    0.842931    2.384170    L0
Au    8.760000    8.429314    2.384170    L0
Au    7.300000    0.842931    2.384170    L0
Au    11.680000    8.429314    2.384170    L0
Au    2.920000    3.371726    2.384170    L0
Au    11.680000    3.371726    2.384170    L0
Au    5.840000    3.371726    2.384170    L0
Au    8.760000    3.371726    2.384170    L0
Au    4.380000    5.900520    2.384170    L0
Au    13.140000    5.900520    2.384170    L0
Au    7.300000    5.900520    2.384170    L0
Au    10.220000    5.900520    2.384170    L0
Au    8.760000    1.685863    4.768340    L0
Au    13.140000    9.272245    4.768340    L0
Au    2.920000    1.685863    4.768340    L0
Au    11.680000    1.685863    4.768340    L0
Au    7.300000    9.272245    4.768340    L0
Au    16.059999    9.272245    4.768340    L0
Au    5.840000    1.685863    4.768340    L0
Au    10.220000    9.272245    4.768340    L0
Au    10.220000    4.214657    4.768340    L0
Au    4.380000    4.214657    4.768340    L0
Au    13.140000    4.214657    4.768340    L0
Au    7.300000    4.214657    4.768340    L0
Au    11.680000    6.743451    4.768340    L0
Au    5.840000    6.743451    4.768340    L0
Au    14.600000    6.743451    4.768340    L0
Au    8.760000    6.743451    4.768340    L0
 C    5.6773996538    6.4008002034    14.499517755200003    S
C    5.7141415834    7.771835186200001    14.8467379006    S
C    5.168613964    8.209808554    16.048753836400003    S
C    4.5642630762    7.3142553754    16.9459594046    S
C    5.069393648899999    5.4967990995000005    15.403740349700001    S
C    4.525999494199999    5.9527406023000005    16.598381093500002    S
C    3.987398927199999    7.7913107974    18.2530270007    S
C    4.224654337299999    8.1185733291    20.759248024700003    S
C    5.026994500199999    7.9290921889    22.01985398    S
C    5.7197268789999995    8.9980148826    22.6101887008    S
C    6.4799367445    8.819135166    23.7612331054    S
C    6.579832761399999    7.5434050684    24.364747169100003    S
C    5.115770815299999    6.664848470900001    22.6286279816    S
C    5.875198676799998    6.4665437933000005    23.774602559700003    S
H    6.174221040799999    8.480223435800001    14.158500463200003    S
H    5.207264609699999    9.2722296586    16.297739615    S
H    7.0052134151    9.6605551501    24.2124403032    S
H    5.9339007099    5.4802197542    24.2343968748    S
C    6.226946959499999    5.9449180106    13.2830459159    S
H    5.028045597599999    4.438701825100001    15.1461193877    S
H    4.0582220618    5.240130279100001    17.280543515    S
C    7.363336492499998    7.3504662328000006    25.5216698485    S
C    4.892825647599999    7.6642149992    19.469345297500002    S
C    6.1491790435    7.2049948958000005    19.4097723466    S
H    3.9507717622999996    9.1826825017    20.651967098400004    S
H    3.264003755299999    7.581046006200001    20.851501328599998    S
H    3.054543958399999    7.2389859435    18.465619549299998    S
H    3.6821437359999996    8.8480297054    18.1574105814    S
H    6.765937625199999    7.128014759000001    20.3044404051    S
H    6.592097598099999    6.890592633800001    18.465443941    S
C    8.053288178699999    7.1860504132    26.5223997949    S
C    9.0153136881    5.7310783227    28.257517336099998    S
C    9.805689315499999    5.5696354581000005    29.374819726500004    S
C    10.4923563258    6.6764030962000005    29.970537897899998    S
C    9.5151104052    8.1270331216    28.254052702200003    S
C    10.308988705199999    7.9624765307    29.3680901849    S
H    9.9262335514    4.586912610200001    29.830740802399998    S
H    10.818353013    8.8155700967    29.8160828218    S
C    6.706799668399999    5.542420281400001    12.228475483100002    S
C    7.2660747152999985    5.067296976100001    11.0334262396    S
C    7.337579159399999    3.6684930078000004    10.775928849900001    S
C    7.9105146314    3.1954803333000004    9.615992029400001    S
C    8.4505264534    4.0861154501    8.632876731900001    S
C    8.3535220405    5.490287494    8.896628047500002    S
C    7.7821430946999985    5.965920129900001    10.057195873400001    S
H    6.9350425886    2.9761111612000004    11.515582716100003    S
H    7.967913730599999    2.1242565885000007    9.422968018500004    S
H    8.748601836299999    6.180595905600001    8.151400189300002    S
H    7.718379777099999    7.0386129205    10.241269711000001    S
S    11.484717066    6.4720932823    31.334789944800004    S
S    9.1853165333    3.4983985254000007    7.21834    S
C    8.849754809199998    7.014884073000001    27.664184669399997    S
H    9.3824934066    9.1144717086    27.8113728546    S
H    8.5047035371    4.875394995100001    27.8150029545    S
H    5.658420897999999    9.9901328966    22.1582158329    S
H    4.580075533299999    5.8214863649    22.1885039042    S
