226

Au         0.00000        0.00000        0.00000
Au         8.76000        0.00000        0.00000
Au         4.38000        7.58638        0.00000
Au        13.14000        7.58638        0.00000
Au         2.92000        0.00000        0.00000
Au        11.68000        0.00000        0.00000
Au         7.30000        7.58638        0.00000
Au        16.06000        7.58638        0.00000
Au         5.84000        0.00000        0.00000
Au        14.60000        0.00000        0.00000
Au        10.22000        7.58638        0.00000
Au        18.98000        7.58638        0.00000
Au         1.46000        2.52879        0.00000
Au        10.22000        2.52879        0.00000
Au         5.84000       10.11518        0.00000
Au        14.60000       10.11518        0.00000
Au         4.38000        2.52879        0.00000
Au        13.14000        2.52879        0.00000
Au         8.76000       10.11518        0.00000
Au        17.52000       10.11518        0.00000
Au         7.30000        2.52879        0.00000
Au        16.06000        2.52879        0.00000
Au        11.68000       10.11518        0.00000
Au        20.44000       10.11518        0.00000
Au         2.92000        5.05759        0.00000
Au        11.68000        5.05759        0.00000
Au         5.84000        5.05759        0.00000
Au        14.60000        5.05759        0.00000
Au         8.76000        5.05759        0.00000
Au        17.52000        5.05759        0.00000
Au         1.46000        0.84293        2.38417
Au        10.22000        0.84293        2.38417
Au         5.84000        8.42931        2.38417
Au        14.60000        8.42931        2.38417
Au         4.38000        0.84293        2.38417
Au        13.14000        0.84293        2.38417
Au         8.76000        8.42931        2.38417
Au        17.52000        8.42931        2.38417
Au         7.30000        0.84293        2.38417
Au        16.06000        0.84293        2.38417
Au        11.68000        8.42931        2.38417
Au        20.44000        8.42931        2.38417
Au         2.92000        3.37173        2.38417
Au        11.68000        3.37173        2.38417
Au         7.30000       10.95811        2.38417
Au        16.06000       10.95811        2.38417
Au         5.84000        3.37173        2.38417
Au        14.60000        3.37173        2.38417
Au        10.22000       10.95811        2.38417
Au        18.98000       10.95811        2.38417
Au         8.76000        3.37173        2.38417
Au        17.52000        3.37173        2.38417
Au        13.14000       10.95811        2.38417
Au        21.90000       10.95811        2.38417
Au         4.38000        5.90052        2.38417
Au        13.14000        5.90052        2.38417
Au         7.30000        5.90052        2.38417
Au        16.06000        5.90052        2.38417
Au        10.22000        5.90052        2.38417
Au        18.98000        5.90052        2.38417
Au         0.00000        1.68586        4.76834
Au         8.76000        1.68586        4.76834
Au         4.38000        9.27224        4.76834
Au        13.14000        9.27224        4.76834
Au         2.92000        1.68586        4.76834
Au        11.68000        1.68586        4.76834
Au         7.30000        9.27224        4.76834
Au        16.06000        9.27224        4.76834
Au         5.84000        1.68586        4.76834
Au        14.60000        1.68586        4.76834
Au        10.22000        9.27224        4.76834
Au        18.98000        9.27224        4.76834
Au         1.46000        4.21466        4.76834
Au        10.22000        4.21466        4.76834
Au         5.84000       11.80104        4.76834
Au        14.60000       11.80104        4.76834
Au         4.38000        4.21466        4.76834
Au        13.14000        4.21466        4.76834
Au         8.76000       11.80104        4.76834
Au        17.52000       11.80104        4.76834
Au         7.30000        4.21466        4.76834
Au        16.06000        4.21466        4.76834
Au        11.68000       11.80104        4.76834
Au        20.44000       11.80104        4.76834
Au         2.92000        6.74345        4.76834
Au        11.68000        6.74345        4.76834
Au         5.84000        6.74345        4.76834
Au        14.60000        6.74345        4.76834
Au         8.76000        6.74345        4.76834
Au        17.52000        6.74345        4.76834
C          7.24369        8.79618       19.47294
C          8.58392        8.39984       19.32894
C          9.18807        8.43059       18.07381
C          8.48136        8.84371       16.92528
C          6.54794        9.28327       18.34733
C          7.15836        9.29644       17.09965
C          9.07320        8.74563       15.57213
C         10.42921        9.01908       15.32309
C         10.97928        8.85578       14.04931
C         10.19359        8.40703       12.98049
C          8.28301        8.32463       14.48316
C          8.83282        8.15495       13.21639
C         10.77881        8.08247       11.60261
C         10.04558        8.71966       10.42679
C          9.82276        7.96655        9.26462
C          9.15461        8.50719        8.16788
C          8.70781        9.83683        8.20049
C          9.59158       10.04647       10.45700
C          8.94596       10.60732        9.35626
N         12.22833        8.33397       11.52486
H         10.67934        6.99172       11.47286
C         13.20918        7.44053       11.92909
C         14.40308        8.10715       11.78784
N         14.19230        9.38664       11.31288
C         12.88035        9.49313       11.17082
H          9.13527        8.02804       20.19384
H         10.21315        8.07122       17.97362
S          6.26343        8.54010       20.92624
H          5.51776        9.62325       18.45468
H          6.59885        9.66902       16.24086
H          7.23175        8.08260       14.64345
H         11.06484        9.37864       16.13350
H         12.03713        9.06843       13.89447
H          8.19765        7.80281       12.40138
H          9.73194       10.64922       11.35569
H         10.16576        6.93096        9.21719
H          8.95857        7.88796        7.29094
S          7.69937       10.58785        6.94347
H          8.60148       11.64077        9.39601
H         14.89041        8.16097       12.73890
H         15.01407        7.57588       11.08831
H         13.19482        6.56677       11.31165
H         13.05569        7.11620       12.93713
H         12.66042        9.71455       10.14735
H         12.53997       10.27483       11.81734
H         14.53692       10.07699       11.98001
Au         0.00000        0.00000       23.06780
Au         8.76000        0.00000       23.06780
Au         4.38000        7.58638       23.06780
Au        13.14000        7.58638       23.06780
Au         2.92000        0.00000       23.06780
Au        11.68000        0.00000       23.06780
Au         7.30000        7.58638       23.06780
Au        16.06000        7.58638       23.06780
Au         5.84000        0.00000       23.06780
Au        14.60000        0.00000       23.06780
Au        10.22000        7.58638       23.06780
Au        18.98000        7.58638       23.06780
Au         1.46000        2.52879       23.06780
Au        10.22000        2.52879       23.06780
Au         5.84000       10.11518       23.06780
Au        14.60000       10.11518       23.06780
Au         4.38000        2.52879       23.06780
Au        13.14000        2.52879       23.06780
Au         8.76000       10.11518       23.06780
Au        17.52000       10.11518       23.06780
Au         7.30000        2.52879       23.06780
Au        16.06000        2.52879       23.06780
Au        11.68000       10.11518       23.06780
Au        20.44000       10.11518       23.06780
Au         2.92000        5.05759       23.06780
Au        11.68000        5.05759       23.06780
Au         5.84000        5.05759       23.06780
Au        14.60000        5.05759       23.06780
Au         8.76000        5.05759       23.06780
Au        17.52000        5.05759       23.06780
Au         1.46000        0.84293       25.45197
Au        10.22000        0.84293       25.45197
Au         5.84000        8.42931       25.45197
Au        14.60000        8.42931       25.45197
Au         4.38000        0.84293       25.45197
Au        13.14000        0.84293       25.45197
Au         8.76000        8.42931       25.45197
Au        17.52000        8.42931       25.45197
Au         7.30000        0.84293       25.45197
Au        16.06000        0.84293       25.45197
Au        11.68000        8.42931       25.45197
Au        20.44000        8.42931       25.45197
Au         2.92000        3.37173       25.45197
Au        11.68000        3.37173       25.45197
Au         7.30000       10.95811       25.45197
Au        16.06000       10.95811       25.45197
Au         5.84000        3.37173       25.45197
Au        14.60000        3.37173       25.45197
Au        10.22000       10.95811       25.45197
Au        18.98000       10.95811       25.45197
Au         8.76000        3.37173       25.45197
Au        17.52000        3.37173       25.45197
Au        13.14000       10.95811       25.45197
Au        21.90000       10.95811       25.45197
Au         4.38000        5.90052       25.45197
Au        13.14000        5.90052       25.45197
Au         7.30000        5.90052       25.45197
Au        16.06000        5.90052       25.45197
Au        10.22000        5.90052       25.45197
Au        18.98000        5.90052       25.45197
Au         0.00000        1.68586       27.83614
Au         8.76000        1.68586       27.83614
Au         4.38000        9.27224       27.83614
Au        13.14000        9.27224       27.83614
Au         2.92000        1.68586       27.83614
Au        11.68000        1.68586       27.83614
Au         7.30000        9.27224       27.83614
Au        16.06000        9.27224       27.83614
Au         5.84000        1.68586       27.83614
Au        14.60000        1.68586       27.83614
Au        10.22000        9.27224       27.83614
Au        18.98000        9.27224       27.83614
Au         1.46000        4.21466       27.83614
Au        10.22000        4.21466       27.83614
Au         5.84000       11.80104       27.83614
Au        14.60000       11.80104       27.83614
Au         4.38000        4.21466       27.83614
Au        13.14000        4.21466       27.83614
Au         8.76000       11.80104       27.83614
Au        17.52000       11.80104       27.83614
Au         7.30000        4.21466       27.83614
Au        16.06000        4.21466       27.83614
Au        11.68000       11.80104       27.83614
Au        20.44000       11.80104       27.83614
Au         2.92000        6.74345       27.83614
Au        11.68000        6.74345       27.83614
Au         5.84000        6.74345       27.83614
Au        14.60000        6.74345       27.83614
Au         8.76000        6.74345       27.83614
Au        17.52000        6.74345       27.83614

