 353

Au      1.664900    0.000000    0.000000 L3
Au      6.659800    0.000000    0.000000 L3
Au      4.162300    1.441900    0.000000 L3
Au      9.157200    1.441900    0.000000 L3
Au      6.659800    2.883800    0.000000 L3
Au      11.654600    2.883800    0.000000 L3
Au      4.162300    4.325600    0.000000 L3
Au      9.157200    4.325600    0.000000 L3
Au      6.659800    5.767500    0.000000 L3
Au      11.654600    5.767500    0.000000 L3
Au      9.157200    7.209400    0.000000 L3
Au      14.152000    7.209400    0.000000 L3
Au      3.329900    0.000000    2.354600 L3
Au      8.324700    0.000000    2.354600 L3
Au      5.827300    1.441900    2.354600 L3
Au      10.822100    1.441900    2.354600 L3
Au      8.324700    2.883800    2.354600 L3
Au      13.319500    2.883800    2.354600 L3
Au      5.827300    4.325600    2.354600 L3
Au      10.822100    4.325600    2.354600 L3
Au      8.324700    5.767500    2.354600 L3
Au      13.319500    5.767500    2.354600 L3
Au      10.822100    7.209400    2.354600 L3
Au      15.816900    7.209400    2.354600 L3
Au      0.000000    0.000000    4.70919594 L3
Au      4.994800    0.000000    4.70919594 L3
Au      2.497400    1.441900    4.70919594 L3
Au      7.492200    1.441900    4.70919594 L3
Au      4.994800    2.883800    4.70919594 L3
Au      9.989600    2.883800    4.70919594 L3
Au      2.497400    4.325600    4.70919594 L3
Au      7.492200    4.325600    4.70919594 L3
Au      4.994800    5.767500    4.70919594 L3
Au      9.989600    5.767500    4.70919594 L3
Au      7.492200    7.209400    4.70919594 L3
Au      12.487000    7.209400    4.70919594 L3
Au      1.664900    0.000000    7.063800 L2
Au      6.659800    0.000000    7.063800 L2
Au      4.162300    1.441900    7.063800 L2
Au      9.157200    1.441900    7.063800 L2
Au      6.659800    2.883800    7.063800 L2
Au      11.654600    2.883800    7.063800 L2
Au      4.162300    4.325600    7.063800 L2
Au      9.157200    4.325600    7.063800 L2
Au      6.659800    5.767500    7.063800 L2
Au      11.654600    5.767500    7.063800 L2
Au      9.157200    7.209400    7.063800 L2
Au      14.152000    7.209400    7.063800 L2
Au      3.329900    0.000000    9.418400 L2
Au      8.324700    0.000000    9.418400 L2
Au      5.827300    1.441900    9.418400 L2
Au      10.822100    1.441900    9.418400 L2
Au      8.324700    2.883800    9.418400 L2
Au      13.319500    2.883800    9.418400 L2
Au      5.827300    4.325600    9.418400 L2
Au      10.822100    4.325600    9.418400 L2
Au      8.324700    5.767500    9.418400 L2
Au      13.319500    5.767500    9.418400 L2
Au      10.822100    7.209400    9.418400 L2
Au      15.816900    7.209400    9.418400 L2
Au      0.000000    0.000000    11.7729959 L2
Au      4.994800    0.000000    11.7729959 L2
Au      2.497400    1.441900    11.7729959 L2
Au      7.492200    1.441900    11.7729959 L2
Au      4.994800    2.883800    11.7729959 L2
Au      9.989600    2.883800    11.7729959 L2
Au      2.497400    4.325600    11.7729959 L2
Au      7.492200    4.325600    11.7729959 L2
Au      4.994800    5.767500    11.7729959 L2
Au      9.989600    5.767500    11.7729959 L2
Au      7.492200    7.209400    11.7729959 L2
Au      12.487000    7.209400    11.7729959 L2
Au      1.664900    0.000000    14.127601 L1
Au      6.659800    0.000000    14.127601 L1
Au      4.162300    1.441900    14.127601 L1
Au      9.157200    1.441900    14.127601 L1
Au      6.659800    2.883800    14.127601 L1
Au      11.654600    2.883800    14.127601 L1
Au      4.162300    4.325600    14.127601 L1
Au      9.157200    4.325600    14.127601 L1
Au      6.659800    5.767500    14.127601 L1
Au      11.654600    5.767500    14.127601 L1
Au      9.157200    7.209400    14.127601 L1
Au      14.152000    7.209400    14.127601 L1
Au      3.329900    0.000000    16.482201 L1
Au      8.324700    0.000000    16.482201 L1
Au      5.827300    1.441900    16.482201 L1
Au      10.822100    1.441900    16.482201 L1
Au      8.324700    2.883800    16.482201 L1
Au      13.319500    2.883800    16.482201 L1
Au      5.827300    4.325600    16.482201 L1
Au      10.822100    4.325600    16.482201 L1
Au      8.324700    5.767500    16.482201 L1
Au      13.319500    5.767500    16.482201 L1
Au      10.822100    7.209400    16.482201 L1
Au      15.816900    7.209400    16.482201 L1
Au      0.000000    0.000000    18.836800 L1
Au      4.994800    0.000000    18.836800 L1
Au      2.497400    1.441900    18.836800 L1
Au      7.492200    1.441900    18.836800 L1
Au      4.994800    2.883800    18.836800 L1
Au      9.989600    2.883800    18.836800 L1
Au      2.497400    4.325600    18.836800 L1
Au      7.492200    4.325600    18.836800 L1
Au      4.994800    5.767500    18.836800 L1
Au      9.989600    5.767500    18.836800 L1
Au      7.492200    7.209400    18.836800 L1
Au      12.487000    7.209400    18.836800 L1 
Au    1.6649000000    0.0000000000    21.1914    L0
Au    6.6598000000    0.0000000000    21.1914    L0
Au    4.1623000000    1.4419000000    21.1914    L0
Au    9.1572000000    1.4419000000    21.1914    L0
Au    6.6598000000    2.8838000000    21.1914    L0
Au    11.6546000000    2.8838000000    21.1914    L0
Au    4.1623000000    4.3256000000    21.1914    L0
Au    9.1572000000    4.3256000000    21.1914    L0
Au    6.6598000000    5.7675000000    21.1914    L0
Au    11.6546000000    5.7675000000    21.1914    L0
Au    9.1572000000    7.2094000000    21.1914    L0
Au    14.1520000000    7.2094000000    21.1914    L0
Au    3.3299000000    0.0000000000    23.546000000000003    L0
Au    8.3247000000    0.0000000000    23.546000000000003    L0
Au    5.8273000000    1.4419000000    23.546000000000003    L0
Au    10.8221000000    1.4419000000    23.546000000000003    L0
Au    8.3247000000    2.8838000000    23.546000000000003    L0
Au    13.3195000000    2.8838000000    23.546000000000003    L0
Au    5.8273000000    4.3256000000    23.546000000000003    L0
Au    10.8221000000    4.3256000000    23.546000000000003    L0
Au    8.3247000000    5.7675000000    23.546000000000003    L0
Au    13.3195000000    5.7675000000    23.546000000000003    L0
Au    10.8221000000    7.2094000000    23.546000000000003    L0
Au    15.8169000000    7.2094000000    23.546000000000003    L0
Au    0.0000000000    0.0000000000    25.9005    L0
Au    4.9948000000    0.0000000000    25.9005    L0
Au    2.4974000000    1.4419000000    25.9005    L0
Au    7.4922000000    1.4419000000    25.9005    L0
Au    4.9948000000    2.8838000000    25.9005    L0
Au    9.9896000000    2.8838000000    25.9005    L0
Au    2.4974000000    4.3256000000    25.9005    L0
Au    7.4922000000    4.3256000000    25.9005    L0
Au    4.9948000000    5.7675000000    25.9005    L0
Au    9.9896000000    5.7675000000    25.9005    L0
Au    7.4922000000    7.2094000000    25.9005    L0
Au    12.4870000000    7.2094000000    25.9005    L0
C    7.9146451259    4.3937270481    28.1915414571    S
C    6.8580142391    4.5181932576    29.1733332633    S
H    8.5187335745    5.3024502815    28.109097053000003    S
H    8.5369204938    3.5019362164    28.305331861800003    S
C    6.6836656865    3.6053490266    30.1642096837    S
H    6.3092763288    5.4654582734    29.211064053500003    S
C    5.9846195560    3.8501905744    31.465711740800003    S
C    7.0380506829    4.1464400355    32.566363483900005    S
C    6.4966436720    4.2899949842    33.9961227455    S
H    7.5675597187    5.0713628875    32.2823189432    S
H    7.8014174941    3.3497953086    32.5486239081    S
C    7.6152339950    4.7425602121    34.9505899064    S
H    6.0742007269    3.3309950490    34.338931005700005    S
H    5.6707177667    5.0185279243    34.0191260466    S
C    7.2568606975    4.9080553781    36.4224783064    S
H    8.0020917649    5.7148575027    34.5925857901    S
H    8.4662953756    4.0478031597    34.884585968    S
C    8.1951071197    4.7747842601    37.423892867700005    S
C    7.8810774204    5.0722633504    38.8859507447    S
C    8.7657513608    4.3749624500    39.930013546400005    S
H    6.8221020605    4.8313399975    39.065872824    S
H    7.9619224781    6.1656108891    39.0297121284    S
C    8.3624361635    4.7382099458    41.36536453390001    S
H    9.8202276671    4.6454283955    39.7599570047    S
H    8.7071254713    3.2816506348    39.7972756906    S
C    9.3105849391    4.1358856000    42.424885693    S
H    7.3353456076    4.3900906018    41.5604696552    S
H    8.3482721303    5.8344013143    41.4857417257    S
C    8.8296217141    4.3100581137    43.8375709171    S
H    10.3081777581    4.5885767538    42.331759316    S
H    9.4261026751    3.0555804287    42.2359184435    S
C    9.2855984783    5.1500397322    44.790072064300006    S
C    8.7448388058    5.3541131411    46.1749618488    S
C    9.7500289373    5.2309712722    47.3365118255    S
H    7.9276875685    4.6347756684    46.3226897054    S
H    8.2866584907    6.3580165109    46.216820304600006    S
C    9.0148215579    5.2867895921    48.682821837700004    S
H    10.4929392693    6.0408685437    47.2711022908    S
H    10.3080045655    4.2842544659    47.2530565993    S
C    9.9529922739    5.4071998839    49.9016134269    S
H    8.3932300441    4.3827972102    48.790959238400006    S
H    8.3157992680    6.1392625012    48.6845378196    S
C    9.2198711143    5.3017685522    51.2224681697    S
H    10.4737762842    6.3804979137    49.8575471479    S
H    10.7320388618    4.6317689501    49.8676163416    S
C    9.5781360593    4.4645002701    52.2659395582    S
C    8.7856278588    4.2538132240    53.483940310200005    S
H    7.7854843940    4.6970727671    53.427655263700004    S
H    8.7509190347    3.1985564699    53.7801617235    S
C    9.5300897172    4.4266422078    37.0956590392    S
C    10.6864707163    4.1305246935    36.8539790262    S
H    11.6969186796    3.8585308548    36.6327285271    S
C    5.9338694569    5.3083517965    36.7367221365    S
C    4.7908597642    5.6623595447    36.9630125265    S
H    3.7965394506    5.9919948989    37.180306000200005    S
C    10.7704965111    3.6871445310    52.1267687567    S
C    8.0493470731    6.0905710883    51.3687055533    S
N    11.7477684449    3.0479787041    52.0425953359    S
N    7.0819334315    6.7480201753    51.4616462666    S
Cl    10.6293620921    6.2128454818    44.3797545858    S
Cl    7.4666904887    3.2626478208    44.2278029809    S
H    5.2852396569    4.6968805712    31.379909273400003    S
H    5.3957200574    2.9627135911    31.754892047200002    S
H    7.2331509773    2.6592378027    30.0856764455    S
Au    9.5967844016    5.0535373223    55.3107376278    R0
Au    2.9369844016    -0.7139626777    57.6653406278    R0
Au    7.9318844016    -0.7139626777    57.6653406278    R0
Au    5.4343844016    0.7279373223    57.6653406278    R0
Au    10.4292844016    0.7279373223    57.6653406278    R0
Au    7.9318844016    2.1698373223    57.6653406278    R0
Au    12.9266844016    2.1698373223    57.6653406278    R0
Au    5.4343844016    3.6116373223    57.6653406278    R0
Au    10.4292844016    3.6116373223    57.6653406278    R0
Au    7.9318844016    5.0535373223    57.6653406278    R0
Au    12.9266844016    5.0535373223    57.6653406278    R0
Au    10.4292844016    6.4954373223    57.6653406278    R0
Au    15.4240844016    6.4954373223    57.6653406278    R0
Au    4.6019844016    -0.7139626777    60.0199426278    R0
Au    9.5967844016    -0.7139626777    60.0199426278    R0
Au    7.0993844016    0.7279373223    60.0199426278    R0
Au    12.0941844016    0.7279373223    60.0199426278    R0
Au    9.5967844016    2.1698373223    60.0199426278    R0
Au    14.5915844016    2.1698373223    60.0199426278    R0
Au    7.0993844016    3.6116373223    60.0199426278    R0
Au    12.0941844016    3.6116373223    60.0199426278    R0
Au    9.5967844016    5.0535373223    60.0199426278    R0
Au    14.5915844016    5.0535373223    60.0199426278    R0
Au    12.0941844016    6.4954373223    60.0199426278    R0
Au    17.0889844016    6.4954373223    60.0199426278    R0
Au    1.2720844016    -0.7139626777    62.374339627800005    R0
Au    6.2668844016    -0.7139626777    62.3745386278    R0
Au    3.7694844016    0.7279373223    62.3745386278    R0
Au    8.7642844016    0.7279373223    62.3745386278    R0
Au    6.2668844016    2.1698373223    62.3745386278    R0
Au    11.2616844016    2.1698373223    62.3745386278    R0
Au    3.7694844016    3.6116373223    62.3745386278    R0
Au    8.7642844016    3.6116373223    62.3745386278    R0
Au    6.2668844016    5.0535373223    62.3745386278    R0
Au    11.2616844016    5.0535373223    62.3745386278    R0
Au    8.7642844016    6.4954373223    62.3745386278    R0
Au    13.7590844016    6.4954373223    62.3745386278    R0
Au    2.936984401600001    -0.7139626776999997    64.7291386278    R1
Au    7.9318844016000005    -0.7139626776999997    64.7291386278    R1
Au    5.434384401600001    0.7279373223000007    64.7291386278    R1
Au    10.4292844016    0.7279373223000007    64.7291386278    R1
Au    7.9318844016000005    2.1698373223000003    64.7291386278    R1
Au    12.926684401600001    2.1698373223000003    64.7291386278    R1
Au    5.434384401600001    3.6116373223    64.7291386278    R1
Au    10.4292844016    3.6116373223    64.7291386278    R1
Au    7.9318844016000005    5.0535373223    64.7291386278    R1
Au    12.926684401600001    5.0535373223    64.7291386278    R1
Au    10.4292844016    6.4954373223    64.7291386278    R1
Au    15.4240844016    6.4954373223    64.7291386278    R1
Au    4.601984401600001    -0.7139626776999997    67.08373762779999    R1
Au    9.5967844016    -0.7139626776999997    67.08373762779999    R1
Au    7.099384401600001    0.7279373223000007    67.08373762779999    R1
Au    12.094184401600002    0.7279373223000007    67.08373762779999    R1
Au    9.5967844016    2.1698373223000003    67.08373762779999    R1
Au    14.5915844016    2.1698373223000003    67.08373762779999    R1
Au    7.099384401600001    3.6116373223    67.08373762779999    R1
Au    12.094184401600002    3.6116373223    67.08373762779999    R1
Au    9.5967844016    5.0535373223    67.08373762779999    R1
Au    14.5915844016    5.0535373223    67.08373762779999    R1
Au    12.094184401600002    6.4954373223    67.08373762779999    R1
Au    17.0889844016    6.4954373223    67.08373762779999    R1
Au    1.2720844016000008    -0.7139626776999997    69.43833262780001    R1
Au    6.2668844016000005    -0.7139626776999997    69.43833262780001    R1
Au    3.7694844016000006    0.7279373223000007    69.43833262780001    R1
Au    8.764284401600001    0.7279373223000007    69.43833262780001    R1
Au    6.2668844016000005    2.1698373223000003    69.43833262780001    R1
Au    11.2616844016    2.1698373223000003    69.43833262780001    R1
Au    3.7694844016000006    3.6116373223    69.43833262780001    R1
Au    8.764284401600001    3.6116373223    69.43833262780001    R1
Au    6.2668844016000005    5.0535373223    69.43833262780001    R1
Au    11.2616844016    5.0535373223    69.43833262780001    R1
Au    8.764284401600001    6.4954373223    69.43833262780001    R1
Au    13.759084401600001    6.4954373223    69.43833262780001    R1
Au    2.936984401600001    -0.7139626776999997    71.7929374278    R2
Au    7.9318844016000005    -0.7139626776999997    71.7929374278    R2
Au    5.434384401600001    0.7279373223000007    71.7929374278    R2
Au    10.4292844016    0.7279373223000007    71.7929374278    R2
Au    7.9318844016000005    2.1698373223000003    71.7929374278    R2
Au    12.926684401600001    2.1698373223000003    71.7929374278    R2
Au    5.434384401600001    3.6116373223    71.7929374278    R2
Au    10.4292844016    3.6116373223    71.7929374278    R2
Au    7.9318844016000005    5.0535373223    71.7929374278    R2
Au    12.926684401600001    5.0535373223    71.7929374278    R2
Au    10.4292844016    6.4954373223    71.7929374278    R2
Au    15.4240844016    6.4954373223    71.7929374278    R2
Au    4.601984401600001    -0.7139626776999997    74.14753692779999    R2
Au    9.5967844016    -0.7139626776999997    74.14753692779999    R2
Au    7.099384401600001    0.7279373223000007    74.14753692779999    R2
Au    12.094184401600002    0.7279373223000007    74.14753692779999    R2
Au    9.5967844016    2.1698373223000003    74.14753692779999    R2
Au    14.5915844016    2.1698373223000003    74.14753692779999    R2
Au    7.099384401600001    3.6116373223    74.14753692779999    R2
Au    12.094184401600002    3.6116373223    74.14753692779999    R2
Au    9.5967844016    5.0535373223    74.14753692779999    R2
Au    14.5915844016    5.0535373223    74.14753692779999    R2
Au    12.094184401600002    6.4954373223    74.14753692779999    R2
Au    17.0889844016    6.4954373223    74.14753692779999    R2
Au    1.2720844016000008    -0.7139626776999997    76.5021439278    R2
Au    6.2668844016000005    -0.7139626776999997    76.5021439278    R2
Au    3.7694844016000006    0.7279373223000007    76.5021439278    R2
Au    8.764284401600001    0.7279373223000007    76.5021439278    R2
Au    6.2668844016000005    2.1698373223000003    76.5021439278    R2
Au    11.2616844016    2.1698373223000003    76.5021439278    R2
Au    3.7694844016000006    3.6116373223    76.5021439278    R2
Au    8.764284401600001    3.6116373223    76.5021439278    R2
Au    6.2668844016000005    5.0535373223    76.5021439278    R2
Au    11.2616844016    5.0535373223    76.5021439278    R2
Au    8.764284401600001    6.4954373223    76.5021439278    R2
Au    13.759084401600001    6.4954373223    76.5021439278    R2
Au    2.936984401600001    -0.7139626776999997    78.8567374278    R3
Au    7.9318844016000005    -0.7139626776999997    78.8567374278    R3
Au    5.434384401600001    0.7279373223000007    78.8567374278    R3
Au    10.4292844016    0.7279373223000007    78.8567374278    R3
Au    7.9318844016000005    2.1698373223000003    78.8567374278    R3
Au    12.926684401600001    2.1698373223000003    78.8567374278    R3
Au    5.434384401600001    3.6116373223    78.8567374278    R3
Au    10.4292844016    3.6116373223    78.8567374278    R3
Au    7.9318844016000005    5.0535373223    78.8567374278    R3
Au    12.926684401600001    5.0535373223    78.8567374278    R3
Au    10.4292844016    6.4954373223    78.8567374278    R3
Au    15.4240844016    6.4954373223    78.8567374278    R3
Au    4.601984401600001    -0.7139626776999997    81.2113369278    R3
Au    9.5967844016    -0.7139626776999997    81.2113369278    R3
Au    7.099384401600001    0.7279373223000007    81.2113369278    R3
Au    12.094184401600002    0.7279373223000007    81.2113369278    R3
Au    9.5967844016    2.1698373223000003    81.2113369278    R3
Au    14.5915844016    2.1698373223000003    81.2113369278    R3
Au    7.099384401600001    3.6116373223    81.2113369278    R3
Au    12.094184401600002    3.6116373223    81.2113369278    R3
Au    9.5967844016    5.0535373223    81.2113369278    R3
Au    14.5915844016    5.0535373223    81.2113369278    R3
Au    12.094184401600002    6.4954373223    81.2113369278    R3
Au    17.0889844016    6.4954373223    81.2113369278    R3
Au    1.2720844016000008    -0.7139626776999997    83.56594392779999    R3
Au    6.2668844016000005    -0.7139626776999997    83.56594392779999    R3
Au    3.7694844016000006    0.7279373223000007    83.56594392779999    R3
Au    8.764284401600001    0.7279373223000007    83.56594392779999    R3
Au    6.2668844016000005    2.1698373223000003    83.56594392779999    R3
Au    11.2616844016    2.1698373223000003    83.56594392779999    R3
Au    3.7694844016000006    3.6116373223    83.56594392779999    R3
Au    8.764284401600001    3.6116373223    83.56594392779999    R3
Au    6.2668844016000005    5.0535373223    83.56594392779999    R3
Au    11.2616844016    5.0535373223    83.56594392779999    R3
Au    8.764284401600001    6.4954373223    83.56594392779999    R3
Au    13.759084401600001    6.4954373223    83.56594392779999    R3
