 355

Au      1.664900    0.000000    0.000000 L3
Au      6.659800    0.000000    0.000000 L3
Au      4.162300    1.441900    0.000000 L3
Au      9.157200    1.441900    0.000000 L3
Au      6.659800    2.883800    0.000000 L3
Au      11.654600    2.883800    0.000000 L3
Au      4.162300    4.325600    0.000000 L3
Au      9.157200    4.325600    0.000000 L3
Au      6.659800    5.767500    0.000000 L3
Au      11.654600    5.767500    0.000000 L3
Au      9.157200    7.209400    0.000000 L3
Au      14.152000    7.209400    0.000000 L3
Au      3.329900    0.000000    2.354600 L3
Au      8.324700    0.000000    2.354600 L3
Au      5.827300    1.441900    2.354600 L3
Au      10.822100    1.441900    2.354600 L3
Au      8.324700    2.883800    2.354600 L3
Au      13.319500    2.883800    2.354600 L3
Au      5.827300    4.325600    2.354600 L3
Au      10.822100    4.325600    2.354600 L3
Au      8.324700    5.767500    2.354600 L3
Au      13.319500    5.767500    2.354600 L3
Au      10.822100    7.209400    2.354600 L3
Au      15.816900    7.209400    2.354600 L3
Au      0.000000    0.000000    4.70919594 L3
Au      4.994800    0.000000    4.70919594 L3
Au      2.497400    1.441900    4.70919594 L3
Au      7.492200    1.441900    4.70919594 L3
Au      4.994800    2.883800    4.70919594 L3
Au      9.989600    2.883800    4.70919594 L3
Au      2.497400    4.325600    4.70919594 L3
Au      7.492200    4.325600    4.70919594 L3
Au      4.994800    5.767500    4.70919594 L3
Au      9.989600    5.767500    4.70919594 L3
Au      7.492200    7.209400    4.70919594 L3
Au      12.487000    7.209400    4.70919594 L3
Au      1.664900    0.000000    7.063800 L2
Au      6.659800    0.000000    7.063800 L2
Au      4.162300    1.441900    7.063800 L2
Au      9.157200    1.441900    7.063800 L2
Au      6.659800    2.883800    7.063800 L2
Au      11.654600    2.883800    7.063800 L2
Au      4.162300    4.325600    7.063800 L2
Au      9.157200    4.325600    7.063800 L2
Au      6.659800    5.767500    7.063800 L2
Au      11.654600    5.767500    7.063800 L2
Au      9.157200    7.209400    7.063800 L2
Au      14.152000    7.209400    7.063800 L2
Au      3.329900    0.000000    9.418400 L2
Au      8.324700    0.000000    9.418400 L2
Au      5.827300    1.441900    9.418400 L2
Au      10.822100    1.441900    9.418400 L2
Au      8.324700    2.883800    9.418400 L2
Au      13.319500    2.883800    9.418400 L2
Au      5.827300    4.325600    9.418400 L2
Au      10.822100    4.325600    9.418400 L2
Au      8.324700    5.767500    9.418400 L2
Au      13.319500    5.767500    9.418400 L2
Au      10.822100    7.209400    9.418400 L2
Au      15.816900    7.209400    9.418400 L2
Au      0.000000    0.000000    11.7729959 L2
Au      4.994800    0.000000    11.7729959 L2
Au      2.497400    1.441900    11.7729959 L2
Au      7.492200    1.441900    11.7729959 L2
Au      4.994800    2.883800    11.7729959 L2
Au      9.989600    2.883800    11.7729959 L2
Au      2.497400    4.325600    11.7729959 L2
Au      7.492200    4.325600    11.7729959 L2
Au      4.994800    5.767500    11.7729959 L2
Au      9.989600    5.767500    11.7729959 L2
Au      7.492200    7.209400    11.7729959 L2
Au      12.487000    7.209400    11.7729959 L2
Au      1.664900    0.000000    14.127601 L1
Au      6.659800    0.000000    14.127601 L1
Au      4.162300    1.441900    14.127601 L1
Au      9.157200    1.441900    14.127601 L1
Au      6.659800    2.883800    14.127601 L1
Au      11.654600    2.883800    14.127601 L1
Au      4.162300    4.325600    14.127601 L1
Au      9.157200    4.325600    14.127601 L1
Au      6.659800    5.767500    14.127601 L1
Au      11.654600    5.767500    14.127601 L1
Au      9.157200    7.209400    14.127601 L1
Au      14.152000    7.209400    14.127601 L1
Au      3.329900    0.000000    16.482201 L1
Au      8.324700    0.000000    16.482201 L1
Au      5.827300    1.441900    16.482201 L1
Au      10.822100    1.441900    16.482201 L1
Au      8.324700    2.883800    16.482201 L1
Au      13.319500    2.883800    16.482201 L1
Au      5.827300    4.325600    16.482201 L1
Au      10.822100    4.325600    16.482201 L1
Au      8.324700    5.767500    16.482201 L1
Au      13.319500    5.767500    16.482201 L1
Au      10.822100    7.209400    16.482201 L1
Au      15.816900    7.209400    16.482201 L1
Au      0.000000    0.000000    18.836800 L1
Au      4.994800    0.000000    18.836800 L1
Au      2.497400    1.441900    18.836800 L1
Au      7.492200    1.441900    18.836800 L1
Au      4.994800    2.883800    18.836800 L1
Au      9.989600    2.883800    18.836800 L1
Au      2.497400    4.325600    18.836800 L1
Au      7.492200    4.325600    18.836800 L1
Au      4.994800    5.767500    18.836800 L1
Au      9.989600    5.767500    18.836800 L1
Au      7.492200    7.209400    18.836800 L1
Au      12.487000    7.209400    18.836800 L1 
Au    1.6649000000    0.0000000000    21.1914    L0
Au    6.6598000000    0.0000000000    21.1914    L0
Au    4.1623000000    1.4419000000    21.1914    L0
Au    9.1572000000    1.4419000000    21.1914    L0
Au    6.6598000000    2.8838000000    21.1914    L0
Au    11.6546000000    2.8838000000    21.1914    L0
Au    4.1623000000    4.3256000000    21.1914    L0
Au    9.1572000000    4.3256000000    21.1914    L0
Au    6.6598000000    5.7675000000    21.1914    L0
Au    11.6546000000    5.7675000000    21.1914    L0
Au    9.1572000000    7.2094000000    21.1914    L0
Au    14.1520000000    7.2094000000    21.1914    L0
Au    3.3299000000    0.0000000000    23.546000000000003    L0
Au    8.3247000000    0.0000000000    23.546000000000003    L0
Au    5.8273000000    1.4419000000    23.546000000000003    L0
Au    10.8221000000    1.4419000000    23.546000000000003    L0
Au    8.3247000000    2.8838000000    23.546000000000003    L0
Au    13.3195000000    2.8838000000    23.546000000000003    L0
Au    5.8273000000    4.3256000000    23.546000000000003    L0
Au    10.8221000000    4.3256000000    23.546000000000003    L0
Au    8.3247000000    5.7675000000    23.546000000000003    L0
Au    13.3195000000    5.7675000000    23.546000000000003    L0
Au    10.8221000000    7.2094000000    23.546000000000003    L0
Au    15.8169000000    7.2094000000    23.546000000000003    L0
Au    0.0000000000    0.0000000000    25.9005    L0
Au    4.9948000000    0.0000000000    25.9005    L0
Au    2.4974000000    1.4419000000    25.9005    L0
Au    7.4922000000    1.4419000000    25.9005    L0
Au    4.9948000000    2.8838000000    25.9005    L0
Au    9.9896000000    2.8838000000    25.9005    L0
Au    2.4974000000    4.3256000000    25.9005    L0
Au    7.4922000000    4.3256000000    25.9005    L0
Au    4.9948000000    5.7675000000    25.9005    L0
Au    9.9896000000    5.7675000000    25.9005    L0
Au    7.4922000000    7.2094000000    25.9005    L0
Au    12.4870000000    7.2094000000    25.9005    L0
C    7.9142655647    4.3711981252    28.167275413800002    S
C    6.8386707491    4.5172546537    29.123902288800004    S
H    8.5502933158    5.2595180392    28.118853720900002    S
H    8.5074623534    3.4621738323    28.295883407300003    S
C    6.6137399474    3.5904982431    30.088720155300003    S
H    6.3255106833    5.4836025839    29.1705554478    S
C    5.9384270100    3.8555040505    31.395122237400003    S
C    7.0279992476    4.1809623334    32.4476465854    S
C    6.5304307133    4.3289820679    33.8880447684    S
H    7.5328528935    5.1102102236    32.1337457738    S
H    7.8027746501    3.3957017421    32.4120856348    S
C    7.6635759982    4.8273363499    34.7958388874    S
H    6.1508299340    3.3610874613    34.255125131    S
H    5.6818025825    5.0301187659    33.9295537167    S
C    7.3370459343    4.9696924666    36.2709998339    S
H    8.0000756308    5.8136176243    34.4258016742    S
H    8.5371431700    4.1645633497    34.7016862551    S
C    8.2901404583    4.8032125117    37.2494306707    S
C    7.9891984897    5.0547007188    38.7166553725    S
C    8.8292868622    4.2581176848    39.720613579200005    S
H    6.9185398834    4.8634411212    38.8840063851    S
H    8.1306723430    6.1334645131    38.91388702570001    S
C    8.3988201829    4.5441327437    41.1615619415    S
H    9.8943036256    4.5076653730    39.5894338765    S
H    8.7402345187    3.1793492479    39.5101437865    S
C    9.3385697060    3.9272787526    42.2148126978    S
H    7.3766345416    4.1671603857    41.3279595168    S
H    8.3593018484    5.6331368274    41.3307017393    S
C    8.8372914811    4.1546163051    43.6098337232    S
H    10.3403543827    4.3702430662    42.1184177919    S
H    9.4405348603    2.8448144569    42.0430308024    S
C    9.1517167396    5.1632016513    44.444816876100006    S
C    8.5974417876    5.4482956426    45.8059512655    S
C    9.5843981539    5.1771321832    46.9536130475    S
H    7.6927930895    4.8399229685    45.9453282006    S
H    8.2815661586    6.5042221684    45.837884340100004    S
C    8.9712072807    5.4937428740    48.318772805500004    S
H    10.4956724642    5.7775972788    46.802590018900005    S
H    9.8953382663    4.1200637686    46.918334879300005    S
C    9.9576367903    5.2367779627    49.4604349645    S
H    8.0692056722    4.8796359923    48.4730728296    S
H    8.6351520366    6.5427857212    48.3432657473    S
C    9.4179233354    5.4567424034    50.844795658    S
H    10.8498090047    5.8808795954    49.3275341231    S
H    10.3490119509    4.2069180078    49.4004654428    S
C    10.0388688022    4.8794553631    52.0028609165    S
C    9.5833018869    5.0283841208    53.292861340500004    S
H    8.6953860763    5.6235027494    53.4994947923    S
H    10.0967942538    4.5519510503    54.1244538237    S
C    9.6193740871    4.4549653232    36.898410867500004    S
C    10.7726624790    4.1591437854    36.643504345800004    S
H    11.7803603635    3.8891270602    36.4073547953    S
C    6.0234917412    5.3680495941    36.625487664000005    S
C    4.8916553535    5.7177327508    36.9078002537    S
H    3.9084201601    6.0404183399    37.177459603    S
C    11.2209008486    4.0946987722    51.782989627800006    S
C    8.2843272476    6.2563481749    51.031220835    S
N    12.1877304063    3.4671811623    51.5846143717    S
N    7.3275741974    6.9258142162    51.1929278059    S
Cl    10.3586183716    6.3297436150    43.91020805070001    S
Cl    7.6298902681    2.9846042920    44.126319684    S
H    5.2383098552    4.7012948211    31.31278792    S
H    5.3623946598    2.9762218032    31.728093401400002    S
H    7.1313989120    2.6283455168    29.998772048    S
Au    9.5967844016    5.0535373223    57.3107376278    R0
Au    2.9369844016    -0.7139626777    59.6653406278    R0
Au    7.9318844016    -0.7139626777    59.6653406278    R0
Au    5.4343844016    0.7279373223    59.6653406278    R0
Au    10.4292844016    0.7279373223    59.6653406278    R0
Au    7.9318844016    2.1698373223    59.6653406278    R0
Au    12.9266844016    2.1698373223    59.6653406278    R0
Au    5.4343844016    3.6116373223    59.6653406278    R0
Au    10.4292844016    3.6116373223    59.6653406278    R0
Au    7.9318844016    5.0535373223    59.6653406278    R0
Au    12.9266844016    5.0535373223    59.6653406278    R0
Au    10.4292844016    6.4954373223    59.6653406278    R0
Au    15.4240844016    6.4954373223    59.6653406278    R0
Au    4.6019844016    -0.7139626777    62.0199426278    R0
Au    9.5967844016    -0.7139626777    62.0199426278    R0
Au    7.0993844016    0.7279373223    62.0199426278    R0
Au    12.0941844016    0.7279373223    62.0199426278    R0
Au    9.5967844016    2.1698373223    62.0199426278    R0
Au    14.5915844016    2.1698373223    62.0199426278    R0
Au    7.0993844016    3.6116373223    62.0199426278    R0
Au    12.0941844016    3.6116373223    62.0199426278    R0
Au    9.5967844016    5.0535373223    62.0199426278    R0
Au    14.5915844016    5.0535373223    62.0199426278    R0
Au    12.0941844016    6.4954373223    62.0199426278    R0
Au    17.0889844016    6.4954373223    62.0199426278    R0
Au    1.2720844016    -0.7139626777    64.3743396278    R0
Au    6.2668844016    -0.7139626777    64.3745386278    R0
Au    3.7694844016    0.7279373223    64.3745386278    R0
Au    8.7642844016    0.7279373223    64.3745386278    R0
Au    6.2668844016    2.1698373223    64.3745386278    R0
Au    11.2616844016    2.1698373223    64.3745386278    R0
Au    3.7694844016    3.6116373223    64.3745386278    R0
Au    8.7642844016    3.6116373223    64.3745386278    R0
Au    6.2668844016    5.0535373223    64.3745386278    R0
Au    11.2616844016    5.0535373223    64.3745386278    R0
Au    8.7642844016    6.4954373223    64.3745386278    R0
Au    13.7590844016    6.4954373223    64.3745386278    R0
Au    2.936984401600001    -0.7139626776999997    66.72913862780001    R1
Au    7.9318844016000005    -0.7139626776999997    66.72913862780001    R1
Au    5.434384401600001    0.7279373223000007    66.72913862780001    R1
Au    10.4292844016    0.7279373223000007    66.72913862780001    R1
Au    7.9318844016000005    2.1698373223000003    66.72913862780001    R1
Au    12.926684401600001    2.1698373223000003    66.72913862780001    R1
Au    5.434384401600001    3.6116373223    66.72913862780001    R1
Au    10.4292844016    3.6116373223    66.72913862780001    R1
Au    7.9318844016000005    5.0535373223    66.72913862780001    R1
Au    12.926684401600001    5.0535373223    66.72913862780001    R1
Au    10.4292844016    6.4954373223    66.72913862780001    R1
Au    15.4240844016    6.4954373223    66.72913862780001    R1
Au    4.601984401600001    -0.7139626776999997    69.0837376278    R1
Au    9.5967844016    -0.7139626776999997    69.0837376278    R1
Au    7.099384401600001    0.7279373223000007    69.0837376278    R1
Au    12.094184401600002    0.7279373223000007    69.0837376278    R1
Au    9.5967844016    2.1698373223000003    69.0837376278    R1
Au    14.5915844016    2.1698373223000003    69.0837376278    R1
Au    7.099384401600001    3.6116373223    69.0837376278    R1
Au    12.094184401600002    3.6116373223    69.0837376278    R1
Au    9.5967844016    5.0535373223    69.0837376278    R1
Au    14.5915844016    5.0535373223    69.0837376278    R1
Au    12.094184401600002    6.4954373223    69.0837376278    R1
Au    17.0889844016    6.4954373223    69.0837376278    R1
Au    1.2720844016000008    -0.7139626776999997    71.43833262780002    R1
Au    6.2668844016000005    -0.7139626776999997    71.43833262780002    R1
Au    3.7694844016000006    0.7279373223000007    71.43833262780002    R1
Au    8.764284401600001    0.7279373223000007    71.43833262780002    R1
Au    6.2668844016000005    2.1698373223000003    71.43833262780002    R1
Au    11.2616844016    2.1698373223000003    71.43833262780002    R1
Au    3.7694844016000006    3.6116373223    71.43833262780002    R1
Au    8.764284401600001    3.6116373223    71.43833262780002    R1
Au    6.2668844016000005    5.0535373223    71.43833262780002    R1
Au    11.2616844016    5.0535373223    71.43833262780002    R1
Au    8.764284401600001    6.4954373223    71.43833262780002    R1
Au    13.759084401600001    6.4954373223    71.43833262780002    R1
Au    2.936984401600001    -0.7139626776999997    73.79293742780001    R2
Au    7.9318844016000005    -0.7139626776999997    73.79293742780001    R2
Au    5.434384401600001    0.7279373223000007    73.79293742780001    R2
Au    10.4292844016    0.7279373223000007    73.79293742780001    R2
Au    7.9318844016000005    2.1698373223000003    73.79293742780001    R2
Au    12.926684401600001    2.1698373223000003    73.79293742780001    R2
Au    5.434384401600001    3.6116373223    73.79293742780001    R2
Au    10.4292844016    3.6116373223    73.79293742780001    R2
Au    7.9318844016000005    5.0535373223    73.79293742780001    R2
Au    12.926684401600001    5.0535373223    73.79293742780001    R2
Au    10.4292844016    6.4954373223    73.79293742780001    R2
Au    15.4240844016    6.4954373223    73.79293742780001    R2
Au    4.601984401600001    -0.7139626776999997    76.1475369278    R2
Au    9.5967844016    -0.7139626776999997    76.1475369278    R2
Au    7.099384401600001    0.7279373223000007    76.1475369278    R2
Au    12.094184401600002    0.7279373223000007    76.1475369278    R2
Au    9.5967844016    2.1698373223000003    76.1475369278    R2
Au    14.5915844016    2.1698373223000003    76.1475369278    R2
Au    7.099384401600001    3.6116373223    76.1475369278    R2
Au    12.094184401600002    3.6116373223    76.1475369278    R2
Au    9.5967844016    5.0535373223    76.1475369278    R2
Au    14.5915844016    5.0535373223    76.1475369278    R2
Au    12.094184401600002    6.4954373223    76.1475369278    R2
Au    17.0889844016    6.4954373223    76.1475369278    R2
Au    1.2720844016000008    -0.7139626776999997    78.50214392780002    R2
Au    6.2668844016000005    -0.7139626776999997    78.50214392780002    R2
Au    3.7694844016000006    0.7279373223000007    78.50214392780002    R2
Au    8.764284401600001    0.7279373223000007    78.50214392780002    R2
Au    6.2668844016000005    2.1698373223000003    78.50214392780002    R2
Au    11.2616844016    2.1698373223000003    78.50214392780002    R2
Au    3.7694844016000006    3.6116373223    78.50214392780002    R2
Au    8.764284401600001    3.6116373223    78.50214392780002    R2
Au    6.2668844016000005    5.0535373223    78.50214392780002    R2
Au    11.2616844016    5.0535373223    78.50214392780002    R2
Au    8.764284401600001    6.4954373223    78.50214392780002    R2
Au    13.759084401600001    6.4954373223    78.50214392780002    R2
Au    2.936984401600001    -0.7139626776999997    80.85673742780001    R3
Au    7.9318844016000005    -0.7139626776999997    80.85673742780001    R3
Au    5.434384401600001    0.7279373223000007    80.85673742780001    R3
Au    10.4292844016    0.7279373223000007    80.85673742780001    R3
Au    7.9318844016000005    2.1698373223000003    80.85673742780001    R3
Au    12.926684401600001    2.1698373223000003    80.85673742780001    R3
Au    5.434384401600001    3.6116373223    80.85673742780001    R3
Au    10.4292844016    3.6116373223    80.85673742780001    R3
Au    7.9318844016000005    5.0535373223    80.85673742780001    R3
Au    12.926684401600001    5.0535373223    80.85673742780001    R3
Au    10.4292844016    6.4954373223    80.85673742780001    R3
Au    15.4240844016    6.4954373223    80.85673742780001    R3
Au    4.601984401600001    -0.7139626776999997    83.21133692780002    R3
Au    9.5967844016    -0.7139626776999997    83.21133692780002    R3
Au    7.099384401600001    0.7279373223000007    83.21133692780002    R3
Au    12.094184401600002    0.7279373223000007    83.21133692780002    R3
Au    9.5967844016    2.1698373223000003    83.21133692780002    R3
Au    14.5915844016    2.1698373223000003    83.21133692780002    R3
Au    7.099384401600001    3.6116373223    83.21133692780002    R3
Au    12.094184401600002    3.6116373223    83.21133692780002    R3
Au    9.5967844016    5.0535373223    83.21133692780002    R3
Au    14.5915844016    5.0535373223    83.21133692780002    R3
Au    12.094184401600002    6.4954373223    83.21133692780002    R3
Au    17.0889844016    6.4954373223    83.21133692780002    R3
Au    1.2720844016000008    -0.7139626776999997    85.5659439278    R3
Au    6.2668844016000005    -0.7139626776999997    85.5659439278    R3
Au    3.7694844016000006    0.7279373223000007    85.5659439278    R3
Au    8.764284401600001    0.7279373223000007    85.5659439278    R3
Au    6.2668844016000005    2.1698373223000003    85.5659439278    R3
Au    11.2616844016    2.1698373223000003    85.5659439278    R3
Au    3.7694844016000006    3.6116373223    85.5659439278    R3
Au    8.764284401600001    3.6116373223    85.5659439278    R3
Au    6.2668844016000005    5.0535373223    85.5659439278    R3
Au    11.2616844016    5.0535373223    85.5659439278    R3
Au    8.764284401600001    6.4954373223    85.5659439278    R3
Au    13.759084401600001    6.4954373223    85.5659439278    R3
