36

Mg           -0.0346348765        1.8624662008       11.9910065899
Mg            3.1952586656        1.8401810542       12.0998140256
Mg           -1.5917178389        4.6039520238       12.0997159401
Mg            1.5610283721        4.6261986083       11.9910030816
Mg           -0.0017883242        1.8435294431       17.2922778792
Mg            3.1936626313        1.8411172355       17.2952617381
Mg           -1.5932821535        4.6048677170       17.2952645531
Mg            1.5938768461        4.6072751590       17.2922834442
Mg            0.0004473610        1.8422161210       22.4979832011
Mg            3.1912101019        1.8425183097       22.4941111609
Mg           -1.5957327791        4.6062820671       22.4941120779
Mg            1.5961271202        4.6059508515       22.4979829417
Mg            0.0088672137        1.8373701513       27.6958795449
Mg            3.1882465938        1.8442544390       27.7193225705
Mg           -1.5987033280        4.6080093967       27.7193215307
Mg            1.6045328120        4.6011198983       27.6958819161
Fe           -0.0364733903        1.8637343118       32.2968787902
Fe            1.5590219319        4.6271689598       32.2968788665
Fe            1.6323379177        0.9002786514       10.0944217531
Fe            3.2278015089        3.6636552019       10.0944211219
Mg            1.5868104551        0.9263375183       14.6958648613
Mg            4.7900301831        0.9194666506       14.6724136815
Mg            0.0030814682        3.6832201586       14.6724131730
Mg            3.1824748967        3.6900911850       14.6958646534
Mg            1.5952205537        0.9214416751       19.8943609623
Mg            4.7870895274        0.9211137187       19.8982213345
Mg            0.0001420133        3.6848807008       19.8982229621
Mg            3.1908971081        3.6851730424       19.8943678122
Mg            1.5974818257        0.9201832437       25.0998251225
Mg            4.7846250649        0.9225795186       25.0968455573
Mg           -0.0023141905        3.6863313810       25.0968458003
Mg            3.1931509528        3.6839301567       25.0998239789
Mg            1.6303412306        0.9012069666       30.4003991433
Mg            4.7830421862        0.9234815827       30.2916589234
Mg           -0.0039339792        3.6872538194       30.2915778989
Mg            3.2260023202        3.6649388803       30.4003974108
