118

Au      1.664900    0.000000    0.0 L0
Au      6.659800    0.000000    0.0 L0
Au      4.162300    1.441900    0.0 L0
Au      9.157200    1.441900    0.0 L0
Au      6.659800    2.883800    0.0 L0
Au      11.654600    2.883800    0.0 L0
Au      4.162300    4.325600    0.0 L0
Au      9.157200    4.325600    0.0 L0
Au      6.659800    5.767500    0.0 L0
Au      11.654600    5.767500    0.0 L0
Au      9.157200    7.209400    0.0 L0
Au      14.152000    7.209400    0.0 L0
Au      3.329900    0.000000    2.3546000000000014 L0
Au      8.324700    0.000000    2.3546000000000014 L0
Au      5.827300    1.441900    2.3546000000000014 L0
Au      10.822100    1.441900    2.3546000000000014 L0
Au      8.324700    2.883800    2.3546000000000014 L0
Au      13.319500    2.883800    2.3546000000000014 L0
Au      5.827300    4.325600    2.3546000000000014 L0
Au      10.822100    4.325600    2.3546000000000014 L0
Au      8.324700    5.767500    2.3546000000000014 L0
Au      13.319500    5.767500    2.3546000000000014 L0
Au      10.822100    7.209400    2.3546000000000014 L0
Au      15.816900    7.209400    2.3546000000000014 L0
Au      0.000000    0.000000    4.709099999999999 L0
Au      4.994800    0.000000    4.709099999999999 L0
Au      2.497400    1.441900    4.709099999999999 L0
Au      7.492200    1.441900    4.709099999999999 L0
Au      4.994800    2.883800    4.709099999999999 L0
Au      9.989600    2.883800    4.709099999999999 L0
Au      2.497400    4.325600    4.709099999999999 L0
Au      7.492200    4.325600    4.709099999999999 L0
Au      4.994800    5.767500    4.709099999999999 L0
Au      9.989600    5.767500    4.709099999999999 L0
Au      7.492200    7.209400    4.709099999999999 L0
Au      12.487000    7.209400    4.709099999999999 L0
H          4.36249        0.68544       10.14564
C          4.58405        1.50306        9.47100
C          3.65780        2.54317        9.27853
C          3.97693        3.58713        8.39126
H          3.27933        4.39606        8.21681
C          5.20019        3.59244        7.71532
H          5.43226        4.40236        7.03517
C          6.11659        2.55571        7.91534
C          5.80702        1.51149        8.79285
H          6.51206        0.70513        8.94984
C          2.33307        2.53102       10.00534
C          2.16529        3.75691       10.93133
H          2.24126        4.65419       10.27928
H          1.52086        2.53609        9.24677
H          2.23117        1.59534       10.56424
C          0.83430        3.77320       11.69210
C          3.16688        3.83429       12.09500
C         -0.51295        1.43580       18.61428
C          0.19926        0.29501       19.20584
C         -0.46658       -0.94979       18.80534
C         -1.54604       -0.53073       17.90469
C         -1.46418        0.94411       17.79600
C         -1.76287        1.65748       16.52179
C         -2.00440        0.93896       15.41285
C         -2.08914       -0.55157       15.43575
C         -1.84666       -1.30814       16.68480
C         -0.99992       -2.48381       16.35756
C          0.08782       -2.92932       17.28602
C          0.35094       -2.15193       18.50972
C          1.81100       -2.08133       18.70688
C          2.39207       -0.77352       19.12876
C          1.53130        0.37934       19.42297
C          2.29446        1.61506       19.21453
C          3.59693        1.17953       18.70968
C          3.55935       -0.29505       18.64296
C          4.25622       -1.03395       17.56103
C          3.73812       -2.32842       17.07159
C          2.46854       -2.85558       17.64462
C          1.40364       -3.34544       16.73772
C          1.62505       -3.16688       15.28107
C          0.61624       -2.68275       14.45258
C         -0.65550       -2.33449       14.93851
C         -1.29481       -1.20552       14.40884
C         -0.64718       -0.44279       13.41528
C         -0.67606        0.94829       13.36733
C         -1.36637        1.65633       14.28163
C         -0.87260        2.95206       14.72896
C          0.40227        3.47841       14.15970
C          1.04005        2.86066       12.92075
C          0.46566        1.44426       12.70142
C          1.25725        0.31367       12.55303
C          0.55425       -0.82857       12.90712
C          1.19173       -1.95352       13.42904
C          2.54074       -1.92478       13.63215
C          2.81769       -2.64002       14.78115
C          3.86277       -2.22900       15.62298
C          4.56169       -1.05512       15.31410
C          4.82752       -0.33070       16.55225
C          4.90615        1.16277       16.53056
C          4.25250        1.91768       17.60668
C          3.57000        3.06836       16.99508
C          3.81643        3.04408       15.54346
C          4.64784        1.87177       15.24915
C          4.25566        1.06661       14.07644
C          4.23474       -0.32256       14.15477
C          3.25430       -0.76631       13.31794
C          2.63398        0.34420       12.76703
C          3.29305        1.50376       13.14122
C          2.61502        2.89053       13.18551
C          2.77520        3.50076       14.57419
C          1.45556        3.85980       15.10966
C          1.20274        3.89243       16.56734
C          2.25569        3.50667       17.50974
C          1.62129        2.79334       18.62690
C          0.18048        2.72533       18.35257
C         -0.08640        3.44862       17.10306
C         -1.11298        2.94095       16.17965
H          4.24236        3.70659       11.84641
H          3.06582        4.87864       12.47469
S          7.68122        2.56392        7.04662
H          0.74787        4.82170       12.06486
H         -0.08677        3.58617       11.09942
