16

Fe3 3.191302300 -0.000000000 10.0
Fe1 0.000002000 1.842495000 11.615317507
Fe2 1.595652000 0.921248000 13.261245139
Mg 0.000002000  1.842495 15.373993390999997
Mg 0.000002000  1.842495 20.598307783000003
Mg 0.000002000  1.842495 25.780624746
Mg 0.000002000  1.842495 30.960619096000002
Mg 0.000002000  1.842495 36.148837749
Mg  1.595652000   0.921248 18.000792308999998
Mg  1.595652000  0.921248 23.193294406
Mg  1.595652000  0.921248 28.373894233999998
Mg  1.595652000   0.921248 33.552757172
Mg  1.595652000  0.921248 38.774780323
Fe2 0.000002000 1.842495000 40.8867975
Fe1 1.595652000 0.921248000 42.532402159
Fe3 3.191302300 -0.000000000 44.147587999
