14

H             0.0000000000       -0.0000000000        9.6838951315
Fe            1.5956520000        0.9212480000       10.0723640761
Mg            0.0000020000        1.8424950000       12.2014535781
Mg            0.0000020000        1.8424950000       17.4107785574
Mg            0.0000020000        1.8424950000       22.5909850615
Mg            0.0000020000        1.8424950000       27.7688150669
Mg            0.0000020000        1.8424950000       32.9509677688
Mg            1.5956520000        0.9212480000       14.8168536316
Mg            1.5956520000        0.9212480000       20.0016580616
Mg            1.5956520000        0.9212480000       25.1802582509
Mg            1.5956520000        0.9212480000       30.3587057233
Mg            1.5956520000        0.9212480000       35.5662482796
Fe            0.0000020000        1.8424950000       37.6928752171
H             0.0000000000       -0.0000000000       38.0811276816
