12

Fe 1.595652000 0.921248000 10.0
Mg 0.000002000  1.842495 12.069993013
Mg 0.000002000  1.842495 17.294307404999998
Mg 0.000002000  1.842495 22.476624368000003
Mg 0.000002000  1.842495 27.656618718000004
Mg 0.000002000  1.842495 32.844837371000004
Mg  1.595652000   0.921248 14.696791930999998
Mg  1.595652000  0.921248 19.889294028000002
Mg  1.595652000  0.921248 25.069893856
Mg  1.595652000   0.921248 30.248756794000002
Mg  1.595652000  0.921248 35.470779945000004
Fe 0.000002000 1.842495000 37.540543636
