13
Fe2
Fe    0    0    7.5
Fe    0.000000    2.319805    9.142502
Fe    2.009010     1.159903    8.32125
Fe    0    0    9.963751818
Fe    0.000000    2.319805    11.606253818
Fe    2.009010     1.159903    10.785001818
Fe    0    0    12.427503636
Fe    0.000000    2.319805    14.070005636000001
Fe    2.009010     1.159903    13.248753636
Fe    0    0    14.891255454
Fe    0.000000    2.319805    16.533757454
Fe    2.009010     1.159903    15.712505453999999
Fe    0    0    17.355007271999998
