155

Au     0.000000     0.000000     0.000000     L3
Au     8.760000     0.000000     0.000000     L3
Au     4.380000     7.586382     0.000000     L3
Au     13.140000     7.586382     0.000000     L3
Au     2.920000     0.000000     0.000000     L3
Au     11.680000     0.000000     0.000000     L3
Au     7.300000     7.586382     0.000000     L3
Au     16.059999     7.586382     0.000000     L3
Au     5.840000     0.000000     0.000000     L3
Au     10.220000     7.586382     0.000000     L3
Au     1.460000     2.528794     0.000000     L3
Au     10.220000     2.528794     0.000000     L3
Au     5.840000     10.115176     0.000000     L3
Au     14.600000     10.115176     0.000000     L3
Au     4.380000     2.528794     0.000000     L3
Au     13.140000     2.528794     0.000000     L3
Au     8.760000     10.115176     0.000000     L3
Au     17.520000     10.115176     0.000000     L3
Au     7.300000     2.528794     0.000000     L3
Au     11.680000     10.115176     0.000000     L3
Au     2.920000     5.057588     0.000000     L3
Au     11.680000     5.057588     0.000000     L3
Au     5.840000     5.057588     0.000000     L3
Au     14.600000     5.057588     0.000000     L3
Au     8.760000     5.057588     0.000000     L3
Au     1.460000     0.842931     2.384170     L3
Au     10.220000     0.842931     2.384170     L3
Au     5.840000     8.429314     2.384170     L3
Au     14.600000     8.429314     2.384170     L3
Au     4.380000     0.842931     2.384170     L3
Au     13.140000     0.842931     2.384170     L3
Au     8.760000     8.429314     2.384170     L3
Au     17.520000     8.429314     2.384170     L3
Au     7.300000     0.842931     2.384170     L3
Au     11.680000     8.429314     2.384170     L3
Au     2.920000     3.371726     2.384170     L3
Au     11.680000     3.371726     2.384170     L3
Au     7.300000     10.958108     2.384170     L3
Au     16.059999     10.958108     2.384170     L3
Au     5.840000     3.371726     2.384170     L3
Au     14.600000     3.371726     2.384170     L3
Au     10.220000     10.958108     2.384170     L3
Au     18.980000     10.958108     2.384170     L3
Au     8.760000     3.371726     2.384170     L3
Au     13.140000     10.958108     2.384170     L3
Au     4.380000     5.900520     2.384170     L3
Au     13.140000     5.900520     2.384170     L3
Au     7.300000     5.900520     2.384170     L3
Au     16.059999     5.900520     2.384170     L3
Au     10.220000     5.900520     2.384170     L3
Au     8.760000     1.685863     4.768340     L3
Au     13.140000     9.272245     4.768340     L3
Au     2.920000     1.685863     4.768340     L3
Au     11.680000     1.685863     4.768340     L3
Au     7.300000     9.272245     4.768340     L3
Au     16.059999     9.272245     4.768340     L3
Au     5.840000     1.685863     4.768340     L3
Au     14.600000     1.685863     4.768340     L3
Au     10.220000     9.272245     4.768340     L3
Au     18.980000     9.272245     4.768340     L3
Au     10.220000     4.214657     4.768340     L3
Au     14.600000     11.801040     4.768340     L3
Au     4.380000     4.214657     4.768340     L3
Au     13.140000     4.214657     4.768340     L3
Au     8.760000     11.801040     4.768340     L3
Au     17.520000     11.801040     4.768340     L3
Au     7.300000     4.214657     4.768340     L3
Au     16.059999     4.214657     4.768340     L3
Au     11.680000     11.801040     4.768340     L3
Au     20.440001     11.801040     4.768340     L3
Au     11.680000     6.743451     4.768340     L3
Au     5.840000     6.743451     4.768340     L3
Au     14.600000     6.743451     4.768340     L3
Au     8.760000     6.743451     4.768340     L3
Au     17.520000     6.743451     4.768340     L3
H    10.356731162164758    3.8207213506799507    11.390415882368316    S
C    10.105801705831373    4.557828351520057    10.625227807023325    S
C    10.415928732375546    5.912704387025396    10.847405138288437    S
C    10.091350007890872    6.853249015734902    9.847281245985478    S
H    10.332448112665881    7.905042933385962    10.009438517358397    S
C    9.451420248898556    6.460621941841716    8.683957257046583    S
H    9.197328541539688    7.190563703402656    7.915464181416425    S
C    9.089401339975842    5.096509554146187    8.465964530216041    S
C    9.459285301612608    4.1520481779645015    9.466869990162799    S
H    9.205416888635702    3.1037024652160983    9.31083672882863    S
C    11.025752893273493    6.357947599008307    12.153119345783587    S
N    10.161413137016476    7.346047509724061    12.834918606347326    S
H    11.993438354409347    6.855441873253705    11.973713154584896    S
H    11.232233838198    5.474233243838427    12.783063557329786    S
C    10.65111491635116    7.842540422203954    14.105664225808358    S
C    8.794518269156752    6.937598520144611    13.076059949893072    S
C    7.580481163023174    6.737213788635865    20.812820648183344    S
C    7.084912585053798    5.4416906258335285    21.236895301301683    S
C    8.22366306312495    4.622354745894757    21.602444576477826    S
C    9.42880149889236    5.4114918380027515    21.40656071145485    S
C    9.030396611340384    6.716619789886836    20.91172815633842    S
C    9.80851230831807    7.358145257987806    19.94379640690763    S
C    11.02107930431229    6.740608782003126    19.441818160582464    S
C    11.407476772165898    5.486012015072778    19.923541610165003    S
C    10.589517542331448    4.809379327810976    20.9152069832595    S
C    10.591674192207437    3.393845966638386    20.599228782675606    S
C    9.435809458245965    2.6330992771672794    20.785780435602764    S
C    8.227901168124534    3.2557963179417824    21.298747687144534    S
C    7.094098047277635    2.6568162920690663    20.623611783721227    S
C    5.991467929807664    3.4448609272277957    20.272606052794035    S
C    5.986559968039758    4.862188578206331    20.58108788582578    S
C    5.347861675124671    5.561179359411121    19.48244938150393    S
C    4.960979807167524    4.572211070673303    18.48858694467457    S
C    5.353514269242853    3.2617714076483364    18.978909554482954    S
C    5.84060899804947    2.302627208573664    18.086681242476068    S
C    6.986168587356259    1.4866765184573878    18.45151264444667    S
C    7.599462533686387    1.6598627589490622    19.694070273298305    S
C    9.04823761496502    1.6467374584227232    19.794331455768685    S
C    9.828939254636571    1.4646658680719469    18.648549641614384    S
C    11.028470328487122    2.257190285615517    18.453320237449393    S
C    11.407615907707173    3.200975250396435    19.415776932354937    S
C    11.914220671074277    4.4923979521955975    18.998556542726156    S
C    12.015618827233189    4.793417111299312    17.634836453295538    S
C    11.61221476074199    6.096340465964753    17.136796599099796    S
C    11.137698415596352    7.051838875574906    18.030326053210707    S
C    9.974421637258745    7.856720739160589    17.650999998581987    S
C    9.38462652340081    7.7004493340700755    16.40598391732656    S
C    10.025160772547123    6.9140883117345995    15.257182520877645    S
C    10.993768700633874    5.924969520732379    15.830487907956233    S
C    10.968980122005847    4.552909353254949    15.547188605117984    S
C    11.612063268634197    3.822736283064332    16.64521462449366    S
C    11.133240112019637    2.5792804756380483    17.046233596119592    S
C    9.989261489535442    1.9752439504011567    16.363252715435827    S
C    9.191419722108408    1.2884986806769505    17.356562907159752    S
C    7.794824645568214    1.2948207764856696    17.26071397845391    S
C    7.15566498883892    1.9851301861488824    16.16218669484814    S
C    5.9493960312877885    2.6077223444597393    16.671001871164304    S
C    5.577520550646858    3.8703556291817742    16.19944935414217    S
C    5.077983591073712    4.867095952648687    17.127479692613786    S
C    5.5947229845808675    6.157150340571621    16.712013006631103    S
C    6.406711871729021    5.967952946751437    15.53339589482692    S
C    6.387903888481942    4.544589946404048    15.203560056200619    S
C    7.549191594081501    3.953840477077848    14.71602367983968    S
C    7.93449949005573    2.642750205945278    15.202325364484661    S
C    9.373142753146888    2.643048682265243    15.309857235044618    S
C    9.849020789331243    3.9623538536225897    14.878003952399403    S
C    8.751420356962852    4.74341469886134    14.491682567315795    S
C    8.744674046479838    6.242734359760597    14.509059825459488    S
C    7.55052138458535    6.721167274949947    15.329916263033518    S
C    7.952240196402061    7.67304365475184    16.319913904724842    S
C    7.150871857459938    7.8870415798950795    17.465895799654515    S
C    5.947548294612341    7.116714254490757    17.6641952350409    S
C    5.826002155096328    6.812201099040652    19.07666113798866    S
C    6.963369031750309    7.4114298089290935    19.754809291138123    S
C    7.77348093362683    8.075724724771462    18.751997289565928    S
C    9.167650503023934    8.039381339509902    18.83720613302687    S
H    8.412417635684795    6.2857053216542536    12.283575674618191    S
H    8.155461338421107    7.831089053702465    13.125856221823188    S
S    8.223660842659177    4.622358960594796    7.064612654367306    S
H    10.278641902925825    8.865239963058878    14.271462905827327    S
H    11.747701654490717    7.865018814286426    14.138688927626415    S
