39

C          7.57189        5.76415       14.64398
N          7.58336        5.69456       13.53100
H          7.56166        5.82617       15.63599
C          9.96439        3.82718       19.68160
C         11.09778        3.13558       19.20840
C         10.99633        2.32035       18.08521
C          9.77558        2.16035       17.40597
C          8.72042        3.61630       19.05320
C          8.63758        2.79884       17.92997
C         10.02742        3.21296        9.93079
H         11.88806        1.81169       17.71258
S         10.13707        5.11929       20.86193
H          7.83485        4.12384       19.43587
H          7.67226        2.66571       17.43673
H         12.05649        3.27288       19.70871
C          8.85039        3.80199        9.43951
C          8.89095        4.88166        8.56101
C         10.13126        5.40584        8.15286
C         11.31891        4.79615        8.59650
C         11.25716        3.71647        9.47510
H          7.96747        5.33435        8.19967
H          7.88115        3.41107        9.75597
H         12.28217        5.18190        8.26244
H         12.18677        3.25879        9.81979
S         10.18966        6.94012        7.27165
C          9.70775        1.41486       16.09756
C          9.96832        2.13338       10.98176
C          9.97414        2.73844       12.40107
C          9.88609        2.38089       14.90659
H         10.48989        0.64057       16.06339
H          8.73895        0.89889       16.00550
H          9.05727        1.52974       10.84587
H         10.82478        1.45028       10.87029
C          9.84960        1.70992       13.52989
H         10.84115        2.91860       15.02653
H          9.09921        3.15172       14.95800
H         10.66385        0.96919       13.45377
H          8.91149        5.62822       21.15951
H          8.92595        7.32700        6.95078
