42

C   1.5051842564347964   4.946779735771407   -0.7849307575902491
N   1.3082390360441019   3.8845740889988027   -1.2302160057398541
H   1.6901817034418871   5.927283934775283   -0.37302359455150497
C   0.44158876778695044   -1.9261877961289013   5.6272177136909765
C   -0.8478094393671071   -2.159122100859187   5.112152476661025
C   -1.4477077088634274   -1.2150930628554648   4.272817192404437
C   -0.7933861693892426   -0.01835119610503247   3.9243708129917314
C   1.096949932017522   -0.7215253472191692   5.314345834297578
C   0.48053362464898985   0.21320456653432948   4.474262348175799
C   -0.7945311545559549   0.948591771701701   -3.516628438924108
H   -2.445736581012591   -1.4198112842727078   3.867402735227057
S   1.1792843171718683   -3.2025214073614485   6.63425292669982
H   2.0948748656988703   -0.5148419131429194   5.716283825740941
H   1.0128039275763905   1.1397811074510298   4.227796088313691
H   -1.378451093978523   -3.0843975618054187   5.360354238921082
C   0.5138441672776475   1.2795034323355512   -3.9176542865678297
C   1.1456761138053297   0.6054900654005309   -4.968770423489415
C   0.4743544843180472   -0.42624769767906345   -5.650378684434846
C   -0.8454619020391204   -0.7469984447675666   -5.28212433148532
C   -1.4624925438115721   -0.06549212557070137   -4.2272690854526624
H   2.1693708729886163   0.8771037426587744   -5.249511793474188
H   1.0541464396907623   2.0678732549614782   -3.3805307657516317
H   -1.3871880476860343   -1.5364398105070423   -5.813928609275495
H   -2.485748127539969   -0.33808008274191875   -3.9422015124478045
S   1.23188180905367   -1.3816836691614947   -6.95602580417368
C   -1.3782664228417696   0.9159107780883536   2.887609536209759
C   -1.4004292847810345   1.57188609535175   -2.2778030205424944
C   -0.9360586008941618   0.8044463753504252   -1.0227796460399607
C   -0.9330138177953395   0.4839831607741397   1.4744596196695379
H   -2.48323400386781   0.912430275384532   2.9454599560819625
H   -1.0516944631788807   1.955862510722263   3.077848110730465
H   -1.092160366597449   2.6297487353097284   -2.190268031623439
H   -2.505176908340934   1.555508449032387   -2.339190665893915
C   -1.4564058857314228   1.342698925173425   0.3160580987508448
H   -1.244592915137678   -0.5671638462884999   1.3170610305157964
H   0.17400411207645983   0.47217389120668896   1.4451699228011967
H   -2.5648492878005698   1.3511786251210456   0.320732713085071
H   -1.1331633432405201   2.394515459415441   0.4461533342713326
H   -1.231273472910371   -0.257924414282222   -1.129504972063163
H   0.17053847036774505   0.8107896503051504   -1.0052965117838029
H   2.3238392476516014   -2.5294147214742164   6.9220354060074385
H   2.4017771077769847   -0.6917709695669534   -6.99270578112649
