334

Au    1.664900    0.000000    0.000000    L3
Au    6.659800    0.000000    0.000000    L3
Au    4.162300    1.441900    0.000000    L3
Au    9.157200    1.441900    0.000000    L3
Au    6.659800    2.883800    0.000000    L3
Au    11.654600    2.883800    0.000000    L3
Au    4.162300    4.325600    0.000000    L3
Au    9.157200    4.325600    0.000000    L3
Au    6.659800    5.767500    0.000000    L3
Au    11.654600    5.767500    0.000000    L3
Au    9.157200    7.209400    0.000000    L3
Au    14.152000    7.209400    0.000000    L3
Au    3.329900    0.000000    2.354600    L3
Au    8.324700    0.000000    2.354600    L3
Au    5.827300    1.441900    2.354600    L3
Au    10.822100    1.441900    2.354600    L3
Au    8.324700    2.883800    2.354600    L3
Au    13.319500    2.883800    2.354600    L3
Au    5.827300    4.325600    2.354600    L3
Au    10.822100    4.325600    2.354600    L3
Au    8.324700    5.767500    2.354600    L3
Au    13.319500    5.767500    2.354600    L3
Au    10.822100    7.209400    2.354600    L3
Au    15.816900    7.209400    2.354600    L3
Au    0.000000    0.000000    4.70919594    L3
Au    4.994800    0.000000    4.70919594    L3
Au    2.497400    1.441900    4.70919594    L3
Au    7.492200    1.441900    4.70919594    L3
Au    4.994800    2.883800    4.70919594    L3
Au    9.989600    2.883800    4.70919594    L3
Au    2.497400    4.325600    4.70919594    L3
Au    7.492200    4.325600    4.70919594    L3
Au    4.994800    5.767500    4.70919594    L3
Au    9.989600    5.767500    4.70919594    L3
Au    7.492200    7.209400    4.70919594    L3
Au    12.487000    7.209400    4.70919594    L3
Au    1.664900    0.000000    7.063800    L2
Au    6.659800    0.000000    7.063800    L2
Au    4.162300    1.441900    7.063800    L2
Au    9.157200    1.441900    7.063800    L2
Au    6.659800    2.883800    7.063800    L2
Au    11.654600    2.883800    7.063800    L2
Au    4.162300    4.325600    7.063800    L2
Au    9.157200    4.325600    7.063800    L2
Au    6.659800    5.767500    7.063800    L2
Au    11.654600    5.767500    7.063800    L2
Au    9.157200    7.209400    7.063800    L2
Au    14.152000    7.209400    7.063800    L2
Au    3.329900    0.000000    9.418400    L2
Au    8.324700    0.000000    9.418400    L2
Au    5.827300    1.441900    9.418400    L2
Au    10.822100    1.441900    9.418400    L2
Au    8.324700    2.883800    9.418400    L2
Au    13.319500    2.883800    9.418400    L2
Au    5.827300    4.325600    9.418400    L2
Au    10.822100    4.325600    9.418400    L2
Au    8.324700    5.767500    9.418400    L2
Au    13.319500    5.767500    9.418400    L2
Au    10.822100    7.209400    9.418400    L2
Au    15.816900    7.209400    9.418400    L2
Au    0.000000    0.000000    11.7729959    L2
Au    4.994800    0.000000    11.7729959    L2
Au    2.497400    1.441900    11.7729959    L2
Au    7.492200    1.441900    11.7729959    L2
Au    4.994800    2.883800    11.7729959    L2
Au    9.989600    2.883800    11.7729959    L2
Au    2.497400    4.325600    11.7729959    L2
Au    7.492200    4.325600    11.7729959    L2
Au    4.994800    5.767500    11.7729959    L2
Au    9.989600    5.767500    11.7729959    L2
Au    7.492200    7.209400    11.7729959    L2
Au    12.487000    7.209400    11.7729959    L2
Au    1.664900    0.000000    14.127601    L1
Au    6.659800    0.000000    14.127601    L1
Au    4.162300    1.441900    14.127601    L1
Au    9.157200    1.441900    14.127601    L1
Au    6.659800    2.883800    14.127601    L1
Au    11.654600    2.883800    14.127601    L1
Au    4.162300    4.325600    14.127601    L1
Au    9.157200    4.325600    14.127601    L1
Au    6.659800    5.767500    14.127601    L1
Au    11.654600    5.767500    14.127601    L1
Au    9.157200    7.209400    14.127601    L1
Au    14.152000    7.209400    14.127601    L1
Au    3.329900    0.000000    16.482201    L1
Au    8.324700    0.000000    16.482201    L1
Au    5.827300    1.441900    16.482201    L1
Au    10.822100    1.441900    16.482201    L1
Au    8.324700    2.883800    16.482201    L1
Au    13.319500    2.883800    16.482201    L1
Au    5.827300    4.325600    16.482201    L1
Au    10.822100    4.325600    16.482201    L1
Au    8.324700    5.767500    16.482201    L1
Au    13.319500    5.767500    16.482201    L1
Au    10.822100    7.209400    16.482201    L1
Au    15.816900    7.209400    16.482201    L1
Au    0.000000    0.000000    18.836800    L1
Au    4.994800    0.000000    18.836800    L1
Au    2.497400    1.441900    18.836800    L1
Au    7.492200    1.441900    18.836800    L1
Au    4.994800    2.883800    18.836800    L1
Au    9.989600    2.883800    18.836800    L1
Au    2.497400    4.325600    18.836800    L1
Au    7.492200    4.325600    18.836800    L1
Au    4.994800    5.767500    18.836800    L1
Au    9.989600    5.767500    18.836800    L1
Au    7.492200    7.209400    18.836800    L1
Au    12.487000    7.209400    18.836800    L1
Au    1.6649000000    0.0000000000    21.1914    L0
Au    6.6598000000    0.0000000000    21.1914    L0
Au    4.1623000000    1.4419000000    21.1914    L0
Au    9.1572000000    1.4419000000    21.1914    L0
Au    6.6598000000    2.8838000000    21.1914    L0
Au    11.6546000000    2.8838000000    21.1914    L0
Au    4.1623000000    4.3256000000    21.1914    L0
Au    9.1572000000    4.3256000000    21.1914    L0
Au    6.6598000000    5.7675000000    21.1914    L0
Au    11.6546000000    5.7675000000    21.1914    L0
Au    9.1572000000    7.2094000000    21.1914    L0
Au    14.1520000000    7.2094000000    21.1914    L0
Au    3.3299000000    0.0000000000    23.546000000000003    L0
Au    8.3247000000    0.0000000000    23.546000000000003    L0
Au    5.8273000000    1.4419000000    23.546000000000003    L0
Au    10.8221000000    1.4419000000    23.546000000000003    L0
Au    8.3247000000    2.8838000000    23.546000000000003    L0
Au    13.3195000000    2.8838000000    23.546000000000003    L0
Au    5.8273000000    4.3256000000    23.546000000000003    L0
Au    10.8221000000    4.3256000000    23.546000000000003    L0
Au    8.3247000000    5.7675000000    23.546000000000003    L0
Au    13.3195000000    5.7675000000    23.546000000000003    L0
Au    10.8221000000    7.2094000000    23.546000000000003    L0
Au    15.8169000000    7.2094000000    23.546000000000003    L0
Au    0.0000000000    0.0000000000    25.9005    L0
Au    4.9948000000    0.0000000000    25.9005    L0
Au    2.4974000000    1.4419000000    25.9005    L0
Au    7.4922000000    1.4419000000    25.9005    L0
Au    4.9948000000    2.8838000000    25.9005    L0
Au    9.9896000000    2.8838000000    25.9005    L0
Au    2.4974000000    4.3256000000    25.9005    L0
Au    7.4922000000    4.3256000000    25.9005    L0
Au    4.9948000000    5.7675000000    25.9005    L0
Au    9.9896000000    5.7675000000    25.9005    L0
Au    7.4922000000    7.2094000000    25.9005    L0
Au    12.4870000000    7.2094000000    25.9005    L0
C    11.9175381858    1.6039002084    39.3685484583    S
C    11.8260555135    0.3520537358    38.646897168500004    S
C    11.6724521134    0.6440033208    37.23694378810001    S
C    11.6670594758    2.1099744001    37.0868748809    S
C    11.8194326503    2.6830038124    38.4072170513    S
C    11.1458886277    3.8583883072    38.756063875500004    S
C    10.2730145685    4.4766362695    37.7917689621    S
C    10.1203169849    3.8970093878    36.5252296131    S
C    10.8515726710    2.7186508908    36.1522242981    S
C    10.1082969922    1.9660777165    35.0484640358    S
C    10.1146301918    0.3617804738    35.210801938900005    S
C    10.8605804838    -0.1459492117    36.445936132300005    S
C    10.1347068175    -1.2262334681    37.0524026498    S
C    10.2887297239    -1.5351926614    38.4106672962    S
C    11.1587415103    -0.7308145799    39.2288176327    S
C    10.5559399684    -0.6023996070    40.540146848800006    S
C    9.3030329903    -1.3380688873    40.5292680865    S
C    9.1399009733    -1.9158227280    39.209073801    S
C    7.8785892093    -1.9807228583    38.6190657576    S
C    7.7147835699    -1.6747438297    37.208068201900005    S
C    8.8235779632    -1.2935418334    36.439749503200005    S
C    8.7308776698    -0.2493942653    35.455674429700004    S
C    7.5391829411    0.4329916939    35.3089031333    S
C    7.5340687079    1.9016450816    35.1580399695    S
C    8.7215658665    2.6061797065    35.164485206600006    S
C    8.8085415325    3.8307953161    35.9122389479    S
C    7.6960741955    4.3545570920    36.58733641    S
C    7.8593377677    4.9373765501    37.9067980295    S
C    9.1209059275    5.0025322053    38.496810205200006    S
C    9.2851328587    4.7017993945    39.9075886301    S
C    8.1756242575    4.3415290795    40.6786602864    S
C    6.8618799587    4.2713792512    40.0645129938    S
C    6.7100525352    4.5617388549    38.7050521648    S
C    5.8399550634    3.7496258487    37.8750621387    S
C    6.4516406354    3.6257406529    36.5672849461    S
C    6.3801816569    2.4108901534    35.8696541092    S
C    5.6765364696    1.2874280554    36.458405081100004    S
C    6.3886089522    0.0724180929    36.110814449100005    S
C    6.4680339663    -0.9729421903    37.041609890100005    S
C    5.8537232842    -0.8362873600    38.3477709326    S
C    6.7262133919    -1.4598084021    39.325391851800006    S
C    6.8758556213    -0.8992526281    40.597633173800006    S
C    8.1903147085    -0.8357587939    41.212974094100005    S
C    8.2873997170    0.4205385015    41.9334954189    S
C    7.0312913564    1.1312192257    41.766725941000004    S
C    6.1595848483    0.3142298522    40.9412221061    S
C    5.3218171323    0.9181574389    39.9967038019    S
C    5.1682897008    0.3341586851    38.6801896543    S
C    5.0758166287    1.4139077438    37.7150028363    S
C    5.1615830755    2.6673263729    38.4398926351    S
C    5.3171310237    2.3631466899    39.8481287522    S
C    6.1525494687    3.1498699757    40.648201435900006    S
C    7.0275540529    2.5231178966    41.6232655003    S
C    8.2790467714    3.2599075262    41.6410772802    S
C    9.4910946540    2.5765684469    41.7957968479    S
C    9.4955035256    1.1285630443    41.9449108008    S
C    10.6474686214    0.6088334933    41.235685958000005    S
C    11.3498685252    1.7319155433    40.6395642672    S
C    10.6397389158    2.9484123066    40.9944561459    S
C    10.5404822636    3.9912640410    40.0668945563    S
C    10.7495573632    -0.1128886862    33.8694404546    S
C    10.7377691343    2.1699767884    33.6416093797    S
N    10.4016665864    0.9435821725    32.927295848    S
H    10.3558533119    -1.0863294938    33.5454557264    S
H    11.8495049517    -0.2106678358    34.003804958900005    S
H    11.8382669897    2.2966944879    33.7489549127    S
H    10.3390758228    3.0570124681    33.132490983400004    S
C    10.4920659991    1.8451468526    30.645061516700004    S
C    11.3118437613    2.8361299406    30.0926048778    S
C    10.7878856110    3.8198310500    29.251814889600002    S
C    9.4166415560    3.8219207071    28.945951679100002    S
C    9.1280038253    1.8394385089    30.311821886900002    S
C    8.5915247717    2.8074843171    29.468911775200002    S
H    12.3771584317    2.8502346042    30.331136211500002    S
H    8.4783683462    1.0724715079    30.7360779352    S
H    7.5305364551    2.7945187375    29.2190832127    S
H    11.4337240757    4.5994431205    28.8470547066    S
S    8.6741599114    5.1874083275    28.083701772700003    S
C    11.0366056492    0.8195893320    31.6128932521    S
H    12.1425561381    0.9159296263    31.680241880000004    S
H    10.8259848939    -0.1953566875    31.238396844700002    S
Au    1.664900    0.000000    44.9449108008    R0
Au    6.659800    0.000000    44.9449108008    R0
Au    4.162300    1.441900    44.9449108008    R0
Au    9.157200    1.441900    44.9449108008    R0
Au    6.659800    2.883800    44.9449108008    R0
Au    11.654600    2.883800    44.9449108008    R0
Au    4.162300    4.325600    44.9449108008    R0
Au    9.157200    4.325600    44.9449108008    R0
Au    6.659800    5.767500    44.9449108008    R0
Au    11.654600    5.767500    44.9449108008    R0
Au    9.157200    7.209400    44.9449108008    R0
Au    14.152000    7.209400    44.9449108008    R0
Au    3.329900    0.000000    47.2995128008    R0
Au    8.324700    0.000000    47.2995128008    R0
Au    5.827300    1.441900    47.2995128008    R0
Au    10.822100    1.441900    47.2995128008    R0
Au    8.324700    2.883800    47.2995128008    R0
Au    13.319500    2.883800    47.2995128008    R0
Au    5.827300    4.325600    47.2995128008    R0
Au    10.822100    4.325600    47.2995128008    R0
Au    8.324700    5.767500    47.2995128008    R0
Au    13.319500    5.767500    47.2995128008    R0
Au    10.822100    7.209400    47.2995128008    R0
Au    15.816900    7.209400    47.2995128008    R0
Au    0.000000    0.000000    49.65390980080001    R0
Au    4.994800    0.000000    49.6541088008    R0
Au    2.497400    1.441900    49.6541088008    R0
Au    7.492200    1.441900    49.6541088008    R0
Au    4.994800    2.883800    49.6541088008    R0
Au    9.989600    2.883800    49.6541088008    R0
Au    2.497400    4.325600    49.6541088008    R0
Au    7.492200    4.325600    49.6541088008    R0
Au    4.994800    5.767500    49.6541088008    R0
Au    9.989600    5.767500    49.6541088008    R0
Au    7.492200    7.209400    49.6541088008    R0
Au    12.487000    7.209400    49.6541088008    R0
Au    1.664900    0.000000    52.008611800800004    R1
Au    6.659800    0.000000    52.008611800800004    R1
Au    4.162300    1.441900    52.008611800800004    R1
Au    9.157200    1.441900    52.008611800800004    R1
Au    6.659800    2.883800    52.008611800800004    R1
Au    11.654600    2.883800    52.008611800800004    R1
Au    4.162300    4.325600    52.008611800800004    R1
Au    9.157200    4.325600    52.008611800800004    R1
Au    6.659800    5.767500    52.008611800800004    R1
Au    11.654600    5.767500    52.008611800800004    R1
Au    9.157200    7.209400    52.008611800800004    R1
Au    14.152000    7.209400    52.008611800800004    R1
Au    3.329900    0.000000    54.363210800800005    R1
Au    8.324700    0.000000    54.363210800800005    R1
Au    5.827300    1.441900    54.363210800800005    R1
Au    10.822100    1.441900    54.363210800800005    R1
Au    8.324700    2.883800    54.363210800800005    R1
Au    13.319500    2.883800    54.363210800800005    R1
Au    5.827300    4.325600    54.363210800800005    R1
Au    10.822100    4.325600    54.363210800800005    R1
Au    8.324700    5.767500    54.363210800800005    R1
Au    13.319500    5.767500    54.363210800800005    R1
Au    10.822100    7.209400    54.363210800800005    R1
Au    15.816900    7.209400    54.363210800800005    R1
Au    0.000000    0.000000    56.71780580080001    R1
Au    4.994800    0.000000    56.71780580080001    R1
Au    2.497400    1.441900    56.71780580080001    R1
Au    7.492200    1.441900    56.71780580080001    R1
Au    4.994800    2.883800    56.71780580080001    R1
Au    9.989600    2.883800    56.71780580080001    R1
Au    2.497400    4.325600    56.71780580080001    R1
Au    7.492200    4.325600    56.71780580080001    R1
Au    4.994800    5.767500    56.71780580080001    R1
Au    9.989600    5.767500    56.71780580080001    R1
Au    7.492200    7.209400    56.71780580080001    R1
Au    12.487000    7.209400    56.71780580080001    R1
Au    1.664900    0.000000    59.072410600800005    R2
Au    6.659800    0.000000    59.072410600800005    R2
Au    4.162300    1.441900    59.072410600800005    R2
Au    9.157200    1.441900    59.072410600800005    R2
Au    6.659800    2.883800    59.072410600800005    R2
Au    11.654600    2.883800    59.072410600800005    R2
Au    4.162300    4.325600    59.072410600800005    R2
Au    9.157200    4.325600    59.072410600800005    R2
Au    6.659800    5.767500    59.072410600800005    R2
Au    11.654600    5.767500    59.072410600800005    R2
Au    9.157200    7.209400    59.072410600800005    R2
Au    14.152000    7.209400    59.072410600800005    R2
Au    3.329900    0.000000    61.427010100800004    R2
Au    8.324700    0.000000    61.427010100800004    R2
Au    5.827300    1.441900    61.427010100800004    R2
Au    10.822100    1.441900    61.427010100800004    R2
Au    8.324700    2.883800    61.427010100800004    R2
Au    13.319500    2.883800    61.427010100800004    R2
Au    5.827300    4.325600    61.427010100800004    R2
Au    10.822100    4.325600    61.427010100800004    R2
Au    8.324700    5.767500    61.427010100800004    R2
Au    13.319500    5.767500    61.427010100800004    R2
Au    10.822100    7.209400    61.427010100800004    R2
Au    15.816900    7.209400    61.427010100800004    R2
Au    0.000000    0.000000    63.781617100800005    R2
Au    4.994800    0.000000    63.781617100800005    R2
Au    2.497400    1.441900    63.781617100800005    R2
Au    7.492200    1.441900    63.781617100800005    R2
Au    4.994800    2.883800    63.781617100800005    R2
Au    9.989600    2.883800    63.781617100800005    R2
Au    2.497400    4.325600    63.781617100800005    R2
Au    7.492200    4.325600    63.781617100800005    R2
Au    4.994800    5.767500    63.781617100800005    R2
Au    9.989600    5.767500    63.781617100800005    R2
Au    7.492200    7.209400    63.781617100800005    R2
Au    12.487000    7.209400    63.781617100800005    R2
Au    1.664900    0.000000    66.1362106008    R3
Au    6.659800    0.000000    66.1362106008    R3
Au    4.162300    1.441900    66.1362106008    R3
Au    9.157200    1.441900    66.1362106008    R3
Au    6.659800    2.883800    66.1362106008    R3
Au    11.654600    2.883800    66.1362106008    R3
Au    4.162300    4.325600    66.1362106008    R3
Au    9.157200    4.325600    66.1362106008    R3
Au    6.659800    5.767500    66.1362106008    R3
Au    11.654600    5.767500    66.1362106008    R3
Au    9.157200    7.209400    66.1362106008    R3
Au    14.152000    7.209400    66.1362106008    R3
Au    3.329900    0.000000    68.4908101008    R3
Au    8.324700    0.000000    68.4908101008    R3
Au    5.827300    1.441900    68.4908101008    R3
Au    10.822100    1.441900    68.4908101008    R3
Au    8.324700    2.883800    68.4908101008    R3
Au    13.319500    2.883800    68.4908101008    R3
Au    5.827300    4.325600    68.4908101008    R3
Au    10.822100    4.325600    68.4908101008    R3
Au    8.324700    5.767500    68.4908101008    R3
Au    13.319500    5.767500    68.4908101008    R3
Au    10.822100    7.209400    68.4908101008    R3
Au    15.816900    7.209400    68.4908101008    R3
Au    0.000000    0.000000    70.8454171008    R3
Au    4.994800    0.000000    70.8454171008    R3
Au    2.497400    1.441900    70.8454171008    R3
Au    7.492200    1.441900    70.8454171008    R3
Au    4.994800    2.883800    70.8454171008    R3
Au    9.989600    2.883800    70.8454171008    R3
Au    2.497400    4.325600    70.8454171008    R3
Au    7.492200    4.325600    70.8454171008    R3
Au    4.994800    5.767500    70.8454171008    R3
Au    9.989600    5.767500    70.8454171008    R3
Au    7.492200    7.209400    70.8454171008    R3
Au    12.487000    7.209400    70.8454171008    R3
