139

Au         0.00000        0.00000        0.00000
Au         8.76000        0.00000        0.00000
Au         4.38000        7.58638        0.00000
Au        13.14000        7.58638        0.00000
Au         2.92000        0.00000        0.00000
Au         7.30000        7.58638        0.00000
Au         5.84000        0.00000        0.00000
Au        10.22000        7.58638        0.00000
Au         1.46000        2.52879        0.00000
Au        10.22000        2.52879        0.00000
Au         4.38000        2.52879        0.00000
Au         7.30000        2.52879        0.00000
Au         2.92000        5.05759        0.00000
Au        11.68000        5.05759        0.00000
Au         5.84000        5.05759        0.00000
Au         8.76000        5.05759        0.00000
Au         1.46000        0.84293        2.38417
Au        10.22000        0.84293        2.38417
Au         5.84000        8.42931        2.38417
Au        14.60000        8.42931        2.38417
Au         4.38000        0.84293        2.38417
Au         8.76000        8.42931        2.38417
Au         7.30000        0.84293        2.38417
Au        11.68000        8.42931        2.38417
Au         2.92000        3.37173        2.38417
Au        11.68000        3.37173        2.38417
Au         5.84000        3.37173        2.38417
Au         8.76000        3.37173        2.38417
Au         4.38000        5.90052        2.38417
Au        13.14000        5.90052        2.38417
Au         7.30000        5.90052        2.38417
Au        10.22000        5.90052        2.38417
Au         8.76000        1.68586        4.76834
Au        13.14000        9.27224        4.76834
Au         2.92000        1.68586        4.76834
Au        11.68000        1.68586        4.76834
Au         7.30000        9.27224        4.76834
Au        16.06000        9.27224        4.76834
Au         5.84000        1.68586        4.76834
Au        10.22000        9.27224        4.76834
Au        10.22000        4.21466        4.76834
Au         4.38000        4.21466        4.76834
Au        13.14000        4.21466        4.76834
Au         7.30000        4.21466        4.76834
Au        11.68000        6.74345        4.76834
Au         5.84000        6.74345        4.76834
Au        14.60000        6.74345        4.76834
Au         8.76000        6.74345        4.76834
C          8.88456        7.07937       19.43620
C          8.83654        5.68006       19.33445
C          8.88395        5.06819       18.08304
C          8.97594        5.82120       16.89314
C          8.99057        7.84481       18.25718
C          9.03319        7.22331       17.01560
C          9.00401        5.18240       15.55777
C          9.63824        3.94506       15.34034
C          9.65965        3.36040       14.07369
C          9.04662        3.97777       12.97248
C          8.40285        5.80659       14.44510
C          8.42619        5.21999       13.18235
C          8.94950        3.24977       11.63169
C          9.21352        4.14255       10.42158
C          8.33475        4.18899        9.33041
C          8.59082        5.00800        8.22995
C          9.75486        5.78943        8.18375
C         10.38526        4.91671       10.36066
C         10.66554        5.71867        9.25801
H          8.74817        5.07128       20.23673
H          8.81564        3.98087       18.02785
S          8.79263        8.03254       20.93174
H          9.04465        8.93141       18.32565
H          9.13943        7.83946       16.12219
H          7.88627        6.75798       14.57856
H         10.14772        3.44828       16.16723
H         10.16800        2.40270       13.93704
H          7.94937        5.73381       12.34488
H         11.09206        4.89476       11.19251
H          7.44327        3.56302        9.33906
H          7.87623        5.05203        7.40622
S         10.05853        7.02094        6.94127
H         11.58137        6.30942        9.22997
N          7.66551        2.52951       11.49057
H          9.73182        2.47010       11.62533
C          6.89157        3.17733       11.68096
C          7.60709        1.81662       12.22423
Au         0.00000        0.00000       23.06780
Au         8.76000        0.00000       23.06780
Au         4.38000        7.58638       23.06780
Au        13.14000        7.58638       23.06780
Au         2.92000        0.00000       23.06780
Au         7.30000        7.58638       23.06780
Au         5.84000        0.00000       23.06780
Au        10.22000        7.58638       23.06780
Au         1.46000        2.52879       23.06780
Au        10.22000        2.52879       23.06780
Au         4.38000        2.52879       23.06780
Au         7.30000        2.52879       23.06780
Au         2.92000        5.05759       23.06780
Au        11.68000        5.05759       23.06780
Au         5.84000        5.05759       23.06780
Au         8.76000        5.05759       23.06780
Au         1.46000        0.84293       25.45197
Au        10.22000        0.84293       25.45197
Au         5.84000        8.42931       25.45197
Au        14.60000        8.42931       25.45197
Au         4.38000        0.84293       25.45197
Au         8.76000        8.42931       25.45197
Au         7.30000        0.84293       25.45197
Au        11.68000        8.42931       25.45197
Au         2.92000        3.37173       25.45197
Au        11.68000        3.37173       25.45197
Au         5.84000        3.37173       25.45197
Au         8.76000        3.37173       25.45197
Au         4.38000        5.90052       25.45197
Au        13.14000        5.90052       25.45197
Au         7.30000        5.90052       25.45197
Au        10.22000        5.90052       25.45197
Au         8.76000        1.68586       27.83614
Au        13.14000        9.27224       27.83614
Au         2.92000        1.68586       27.83614
Au        11.68000        1.68586       27.83614
Au         7.30000        9.27224       27.83614
Au        16.06000        9.27224       27.83614
Au         5.84000        1.68586       27.83614
Au        10.22000        9.27224       27.83614
Au        10.22000        4.21466       27.83614
Au         4.38000        4.21466       27.83614
Au        13.14000        4.21466       27.83614
Au         7.30000        4.21466       27.83614
Au        11.68000        6.74345       27.83614
Au         5.84000        6.74345       27.83614
Au        14.60000        6.74345       27.83614
Au         8.76000        6.74345       27.83614
H          8.39038        1.10038       12.08876
H          6.65918        1.32349       12.16770
H          7.71069        2.28153       13.18237
H          6.88977        3.95625       10.94736
H          7.01508        3.60433       12.65426
H          5.96357        2.64628       11.63960
