66
 
 Au         0.0000000000        0.0000000000       21.4575297720 L0
 Au         2.9200000000        0.0000000000       21.4575297720 L0
 Au         5.8400000000        0.0000000000       21.4575297720 L0
 Au         1.4600000000        2.5287941680       21.4575297720 L0
 Au         4.3800000000        2.5287941680       21.4575297720 L0
 Au         7.3000000000        2.5287941680       21.4575297720 L0
 Au         2.9200000000        5.0575883360       21.4575297720 L0
 Au         5.8400000000        5.0575883360       21.4575297720 L0
 Au         8.7600000000        5.0575883360       21.4575297720 L0
 Au         1.4600000000        0.8429312920       23.8416998440 L0
 Au         4.3800000000        0.8429312920       23.8416998440 L0
 Au         7.3000000000        0.8429312920       23.8416998440 L0
 Au         2.9200000000        3.3717254600       23.8416998440 L0
 Au         5.8400000000        3.3717254600       23.8416998440 L0
 Au         8.7600000000        3.3717254600       23.8416998440 L0
 Au         4.3800000000        5.9005196280       23.8416998440 L0
 Au         7.3000000000        5.9005196280       23.8416998440 L0
 Au        10.2200000000        5.9005196280       23.8416998440 L0
 Au         0.0000000000        1.6858628760       26.2258699160 L0
 Au         2.9200000000        1.6858628760       26.2258699160 L0
 Au         5.8400000000        1.6858628760       26.2258699160 L0
 Au         1.4600000000        4.2146570440       26.2258699160 L0
 Au         4.3800000000        4.2146570440       26.2258699160 L0
 Au         7.3000000000        4.2146570440       26.2258699160 L0
 Au         2.9200000000        6.7434512120       26.2258699160 L0
 Au         5.8400000000        6.7434512120       26.2258699160 L0
 Au         8.7600000000        6.7434512120       26.2258699160 L0
  S         4.3897374445        2.5067369638       34.1662712986 S
  S         4.3871636646        2.5054981547       27.9597162296 S
  C         4.4049049466        2.4402425171       32.4352453855 S
  C         4.4016468646        2.4387739728       29.6952874054 S
  C         3.1883608421        2.4306559799       31.7528215477 S
  C         3.1865224158        2.4293893824       30.3790798006 S
  C         5.6207135759        2.4311099196       31.7510402036 S
  C         5.6188095460        2.4303813928       30.3755718748 S
  H         2.2525370715        2.4222730120       32.3198101873 S
  H         2.2491024319        2.4197512514       29.8148804049 S
  H         6.5589168926        2.4243905511       32.3145243256 S
  H         6.5551277581        2.4213380461       29.8088004207 S
 Au         8.7600000000        6.7434512120       35.9028394760 R0
 Au         5.8400000000        6.7434512120       35.9028394760 R0
 Au         2.9200000000        6.7434512120       35.9028394760 R0
 Au         7.3000000000        4.2146570440       35.9028394760 R0
 Au         4.3800000000        4.2146570440       35.9028394760 R0
 Au         1.4600000000        4.2146570440       35.9028394760 R0
 Au         5.8400000000        1.6858628760       35.9028394760 R0
 Au         2.9200000000        1.6858628760       35.9028394760 R0
 Au         0.0000000000        1.6858628760       35.9028394760 R0
 Au        10.2200000000        5.9005196280       38.2870095480 R0
 Au         7.3000000000        5.9005196280       38.2870095480 R0
 Au         4.3800000000        5.9005196280       38.2870095480 R0
 Au         8.7600000000        3.3717254600       38.2870095480 R0
 Au         5.8400000000        3.3717254600       38.2870095480 R0
 Au         2.9200000000        3.3717254600       38.2870095480 R0
 Au         7.3000000000        0.8429312920       38.2870095480 R0
 Au         4.3800000000        0.8429312920       38.2870095480 R0
 Au         1.4600000000        0.8429312920       38.2870095480 R0
 Au         8.7600000000        5.0575883360       40.6711796200 R0
 Au         5.8400000000        5.0575883360       40.6711796200 R0
 Au         2.9200000000        5.0575883360       40.6711796200 R0
 Au         7.3000000000        2.5287941680       40.6711796200 R0
 Au         4.3800000000        2.5287941680       40.6711796200 R0
 Au         1.4600000000        2.5287941680       40.6711796200 R0
 Au         5.8400000000        0.0000000000       40.6711796200 R0
 Au         2.9200000000        0.0000000000       40.6711796200 R0
 Au         0.0000000000        0.0000000000       40.6711796200 R0
