108

Au    8.760002    1.685863    2.384170
Au   16.060001   14.329833    2.384170
Au   13.140000    9.272246    2.384170
Au    2.920000    1.685863    2.384170
Au   10.219999   14.329833    2.384170
Au   17.520000    1.685863    2.384170
Au   24.820000   14.329833    2.384170
Au   11.680000    1.685863    2.384170
Au   18.980000   14.329833    2.384170
Au    7.300000    9.272246    2.384170
Au   21.900002    9.272246    2.384170
Au   16.059999    9.272246    2.384170
Au    5.840001    1.685863    2.384170
Au   13.139999   14.329833    2.384170
Au   14.600000    1.685863    2.384170
Au   21.900000   14.329833    2.384170
Au   10.220000    9.272246    2.384170
Au   18.980000    9.272246    2.384170
Au   10.220001    4.214657    2.384170
Au   14.600000   11.801040    2.384170
Au    4.380000    4.214657    2.384170
Au   18.980000    4.214657    2.384170
Au   13.140000    4.214657    2.384170
Au    8.760000   11.801040    2.384170
Au   23.360001   11.801040    2.384170
Au   17.520000   11.801040    2.384170
Au    7.300000    4.214657    2.384170
Au   16.059999    4.214657    2.384170
Au   11.680000   11.801040    2.384170
Au   20.440001   11.801040    2.384170
Au   11.680000    6.743451    2.384170
Au    5.840000    6.743451    2.384170
Au   20.440001    6.743451    2.384170
Au   14.600000    6.743451    2.384170
Au    8.760000    6.743451    2.384170
Au   17.520000    6.743451    2.384170
Au    1.460000    0.842931    4.768340
Au    8.759999   13.486901    4.768340
Au   16.060001    0.842931    4.768340
Au   23.360001   13.486901    4.768340
Au   10.220000    0.842931    4.768340
Au   17.520000   13.486901    4.768340
Au    5.840001    8.429314    4.768340
Au   20.440002    8.429314    4.768340
Au   14.600000    8.429314    4.768340
Au    4.380000    0.842931    4.768340
Au   11.679999   13.486901    4.768340
Au   13.140001    0.842931    4.768340
Au   20.440001   13.486901    4.768340
Au    8.760000    8.429314    4.768340
Au   17.520000    8.429314    4.768340
Au    7.300001    0.842931    4.768340
Au   14.600000   13.486901    4.768340
Au   11.680000    8.429314    4.768340
Au    2.920000    3.371726    4.768340
Au   17.520000    3.371726    4.768340
Au   11.680001    3.371726    4.768340
Au    7.300000   10.958109    4.768340
Au   21.900000   10.958109    4.768340
Au   16.059998   10.958109    4.768340
Au    5.840000    3.371726    4.768340
Au   14.600000    3.371726    4.768340
Au   10.220000   10.958109    4.768340
Au   18.980000   10.958109    4.768340
Au    8.760000    3.371726    4.768340
Au   13.139999   10.958109    4.768340
Au    4.380000    5.900520    4.768340
Au   18.980001    5.900520    4.768340
Au   13.140000    5.900520    4.768340
Au    7.300000    5.900520    4.768340
Au   16.059999    5.900520    4.768340
Au   10.220000    5.900520    4.768340
Au    0.000000    0.000000    7.152510
Au    7.300000   12.643970    7.152510
Au   14.600000    0.000000    7.152510
Au   21.900000   12.643970    7.152510
Au    8.760000    0.000000    7.152510
Au   16.059999   12.643970    7.152510
Au    4.380000    7.586382    7.152510
Au   18.980000    7.586382    7.152510
Au   13.139999    7.586382    7.152510
Au    2.920000    0.000000    7.152510
Au   10.219999   12.643970    7.152510
Au   11.680000    0.000000    7.152510
Au   18.980000   12.643970    7.152510
Au    7.300000    7.586382    7.152510
Au   16.059999    7.586382    7.152510
Au    5.840000    0.000000    7.152510
Au   13.139999   12.643970    7.152510
Au   10.220000    7.586382    7.152510
Au    1.460000    2.528794    7.152510
Au   16.059999    2.528794    7.152510
Au   10.220000    2.528794    7.152510
Au    5.840000   10.115176    7.152510
Au   20.440001   10.115176    7.152510
Au   14.600000   10.115176    7.152510
Au    4.380000    2.528794    7.152510
Au   13.140000    2.528794    7.152510
Au    8.760000   10.115176    7.152510
Au   17.520000   10.115176    7.152510
Au    7.300000    2.528794    7.152510
Au   11.680000   10.115176    7.152510
Au    2.920000    5.057588    7.152510
Au   17.520000    5.057588    7.152510
Au   11.680000    5.057588    7.152510
Au    5.840000    5.057588    7.152510
Au   14.600000    5.057588    7.152510
Au    8.760000    5.057588    7.152510
