441
 
Au    0.000000    0.000000    0.000000    R1
Au    7.300000    12.643970    0.000000    R1
Au    14.600000    0.000000    0.000000    R1
Au    21.900000    12.643970    0.000000    R1
Au    8.760000    0.000000    0.000000    R1
Au    16.059999    12.643970    0.000000    R1
Au    4.380000    7.586382    0.000000    R1
Au    18.980000    7.586382    0.000000    R1
Au    13.139999    7.586382    0.000000    R1
Au    2.920000    0.000000    0.000000    R1
Au    10.219999    12.643970    0.000000    R1
Au    17.520000    0.000000    0.000000    R1
Au    24.820000    12.643970    0.000000    R1
Au    11.680000    0.000000    0.000000    R1
Au    18.980000    12.643970    0.000000    R1
Au    7.300000    7.586382    0.000000    R1
Au    21.900002    7.586382    0.000000    R1
Au    16.059999    7.586382    0.000000    R1
Au    5.840000    0.000000    0.000000    R1
Au    13.139999    12.643970    0.000000    R1
Au    10.220000    7.586382    0.000000    R1
Au    1.460000    2.528794    0.000000    R1
Au    8.759999    15.172765    0.000000    R1
Au    16.059999    2.528794    0.000000    R1
Au    23.359999    15.172765    0.000000    R1
Au    10.220000    2.528794    0.000000    R1
Au    17.520000    15.172765    0.000000    R1
Au    5.840000    10.115176    0.000000    R1
Au    20.440001    10.115176    0.000000    R1
Au    14.600000    10.115176    0.000000    R1
Au    4.380000    2.528794    0.000000    R1
Au    11.680000    15.172765    0.000000    R1
Au    18.980000    2.528794    0.000000    R1
Au    26.279999    15.172765    0.000000    R1
Au    13.140000    2.528794    0.000000    R1
Au    20.440001    15.172765    0.000000    R1
Au    8.760000    10.115176    0.000000    R1
Au    23.360001    10.115176    0.000000    R1
Au    17.520000    10.115176    0.000000    R1
Au    7.300000    2.528794    0.000000    R1
Au    14.600000    15.172765    0.000000    R1
Au    11.680000    10.115176    0.000000    R1
Au    2.920000    5.057588    0.000000    R1
Au    17.520000    5.057588    0.000000    R1
Au    11.680000    5.057588    0.000000    R1
Au    5.840000    5.057588    0.000000    R1
Au    20.440001    5.057588    0.000000    R1
Au    14.600000    5.057588    0.000000    R1
Au    8.760000    5.057588    0.000000    R1
Au    1.460000    0.842931    2.384170    R1
Au    8.760000    13.486901    2.384170    R1
Au    16.060001    0.842931    2.384170    R1
Au    23.360001    13.486901    2.384170    R1
Au    10.220000    0.842931    2.384170    R1
Au    17.520000    13.486901    2.384170    R1
Au    5.840000    8.429314    2.384170    R1
Au    20.440001    8.429314    2.384170    R1
Au    14.600000    8.429314    2.384170    R1
Au    4.380000    0.842931    2.384170    R1
Au    11.680000    13.486901    2.384170    R1
Au    18.980000    0.842931    2.384170    R1
Au    26.279999    13.486901    2.384170    R1
Au    13.140001    0.842931    2.384170    R1
Au    20.440001    13.486901    2.384170    R1
Au    8.760000    8.429314    2.384170    R1
Au    23.360001    8.429314    2.384170    R1
Au    17.520000    8.429314    2.384170    R1
Au    7.300000    0.842931    2.384170    R1
Au    14.600000    13.486901    2.384170    R1
Au    11.680000    8.429314    2.384170    R1
Au    2.920000    3.371726    2.384170    R1
Au    10.219999    16.015697    2.384170    R1
Au    17.520000    3.371726    2.384170    R1
Au    24.820000    16.015697    2.384170    R1
Au    11.680000    3.371726    2.384170    R1
Au    18.980000    16.015697    2.384170    R1
Au    7.300000    10.958109    2.384170    R1
Au    21.900002    10.958109    2.384170    R1
Au    16.059999    10.958109    2.384170    R1
Au    5.840000    3.371726    2.384170    R1
Au    13.139999    16.015697    2.384170    R1
Au    20.440001    3.371726    2.384170    R1
Au    27.740000    16.015697    2.384170    R1
Au    14.600000    3.371726    2.384170    R1
Au    21.900000    16.015697    2.384170    R1
Au    10.220000    10.958109    2.384170    R1
Au    24.820000    10.958109    2.384170    R1
Au    18.980000    10.958109    2.384170    R1
Au    8.760000    3.371726    2.384170    R1
Au    16.059999    16.015697    2.384170    R1
Au    13.140000    10.958109    2.384170    R1
Au    4.380000    5.900520    2.384170    R1
Au    18.980000    5.900520    2.384170    R1
Au    13.140000    5.900520    2.384170    R1
Au    7.300000    5.900520    2.384170    R1
Au    21.900002    5.900520    2.384170    R1
Au    16.059999    5.900520    2.384170    R1
Au    10.220000    5.900520    2.384170    R1
Au    8.760001    1.685863    4.768340    R1
Au    16.060001    14.329834    4.768340    R1
Au    13.139999    9.272246    4.768340    R1
Au    2.920000    1.685863    4.768340    R1
Au    10.219999    14.329834    4.768340    R1
Au    17.520000    1.685863    4.768340    R1
Au    24.820000    14.329834    4.768340    R1
Au    11.680000    1.685863    4.768340    R1
Au    18.980000    14.329834    4.768340    R1
Au    7.300000    9.272246    4.768340    R1
Au    21.900000    9.272246    4.768340    R1
Au    16.059999    9.272246    4.768340    R1
Au    5.840000    1.685863    4.768340    R1
Au    13.139999    14.329834    4.768340    R1
Au    20.440001    1.685863    4.768340    R1
Au    27.740000    14.329834    4.768340    R1
Au    14.600000    1.685863    4.768340    R1
Au    21.900000    14.329834    4.768340    R1
Au    10.219999    9.272246    4.768340    R1
Au    24.820000    9.272246    4.768340    R1
Au    18.980000    9.272246    4.768340    R1
Au    10.220001    4.214657    4.768340    R1
Au    17.520000    16.858627    4.768340    R1
Au    14.600000    11.801040    4.768340    R1
Au    4.380000    4.214657    4.768340    R1
Au    11.680000    16.858627    4.768340    R1
Au    18.980000    4.214657    4.768340    R1
Au    26.279999    16.858627    4.768340    R1
Au    13.140000    4.214657    4.768340    R1
Au    20.440001    16.858627    4.768340    R1
Au    8.760000    11.801040    4.768340    R1
Au    23.360001    11.801040    4.768340    R1
Au    17.520000    11.801040    4.768340    R1
Au    7.300000    4.214657    4.768340    R1
Au    14.600000    16.858627    4.768340    R1
Au    21.900002    4.214657    4.768340    R1
Au    29.200001    16.858627    4.768340    R1
Au    16.059999    4.214657    4.768340    R1
Au    23.359999    16.858627    4.768340    R1
Au    11.680000    11.801040    4.768340    R1
Au    26.280001    11.801040    4.768340    R1
Au    20.440001    11.801040    4.768340    R1
Au    11.680000    6.743451    4.768340    R1
Au    5.840000    6.743451    4.768340    R1
Au    20.440001    6.743451    4.768340    R1
Au    14.600000    6.743451    4.768340    R1
Au    8.760000    6.743451    4.768340    R1
Au    23.360001    6.743451    4.768340    R1
Au    17.520000    6.743451    4.768340    R1
Au    0.000000    0.000000    7.15251    R2
Au    7.300000    12.643970    7.15251    R2
Au    14.600000    0.000000    7.15251    R2
Au    21.900000    12.643970    7.15251    R2
Au    8.760000    0.000000    7.15251    R2
Au    16.059999    12.643970    7.15251    R2
Au    4.380000    7.586382    7.15251    R2
Au    18.980000    7.586382    7.15251    R2
Au    13.139999    7.586382    7.15251    R2
Au    2.920000    0.000000    7.15251    R2
Au    10.219999    12.643970    7.15251    R2
Au    17.520000    0.000000    7.15251    R2
Au    24.820000    12.643970    7.15251    R2
Au    11.680000    0.000000    7.15251    R2
Au    18.980000    12.643970    7.15251    R2
Au    7.300000    7.586382    7.15251    R2
Au    21.900002    7.586382    7.15251    R2
Au    16.059999    7.586382    7.15251    R2
Au    5.840000    0.000000    7.15251    R2
Au    13.139999    12.643970    7.15251    R2
Au    10.220000    7.586382    7.15251    R2
Au    1.460000    2.528794    7.15251    R2
Au    8.759999    15.172765    7.15251    R2
Au    16.059999    2.528794    7.15251    R2
Au    23.359999    15.172765    7.15251    R2
Au    10.220000    2.528794    7.15251    R2
Au    17.520000    15.172765    7.15251    R2
Au    5.840000    10.115176    7.15251    R2
Au    20.440001    10.115176    7.15251    R2
Au    14.600000    10.115176    7.15251    R2
Au    4.380000    2.528794    7.15251    R2
Au    11.680000    15.172765    7.15251    R2
Au    18.980000    2.528794    7.15251    R2
Au    26.279999    15.172765    7.15251    R2
Au    13.140000    2.528794    7.15251    R2
Au    20.440001    15.172765    7.15251    R2
Au    8.760000    10.115176    7.15251    R2
Au    23.360001    10.115176    7.15251    R2
Au    17.520000    10.115176    7.15251    R2
Au    7.300000    2.528794    7.15251    R2
Au    14.600000    15.172765    7.15251    R2
Au    11.680000    10.115176    7.15251    R2
Au    2.920000    5.057588    7.15251    R2
Au    17.520000    5.057588    7.15251    R2
Au    11.680000    5.057588    7.15251    R2
Au    5.840000    5.057588    7.15251    R2
Au    20.440001    5.057588    7.15251    R2
Au    14.600000    5.057588    7.15251    R2
Au    8.760000    5.057588    7.15251    R2
Au    1.460000    0.842931    9.53668    R2
Au    8.760000    13.486901    9.53668    R2
Au    16.060001    0.842931    9.53668    R2
Au    23.360001    13.486901    9.53668    R2
Au    10.220000    0.842931    9.53668    R2
Au    17.520000    13.486901    9.53668    R2
Au    5.840000    8.429314    9.53668    R2
Au    20.440001    8.429314    9.53668    R2
Au    14.600000    8.429314    9.53668    R2
Au    4.380000    0.842931    9.53668    R2
Au    11.680000    13.486901    9.53668    R2
Au    18.980000    0.842931    9.53668    R2
Au    26.279999    13.486901    9.53668    R2
Au    13.140001    0.842931    9.53668    R2
Au    20.440001    13.486901    9.53668    R2
Au    8.760000    8.429314    9.53668    R2
Au    23.360001    8.429314    9.53668    R2
Au    17.520000    8.429314    9.53668    R2
Au    7.300000    0.842931    9.53668    R2
Au    14.600000    13.486901    9.53668    R2
Au    11.680000    8.429314    9.53668    R2
Au    2.920000    3.371726    9.53668    R2
Au    10.219999    16.015697    9.53668    R2
Au    17.520000    3.371726    9.53668    R2
Au    24.820000    16.015697    9.53668    R2
Au    11.680000    3.371726    9.53668    R2
Au    18.980000    16.015697    9.53668    R2
Au    7.300000    10.958109    9.53668    R2
Au    21.900002    10.958109    9.53668    R2
Au    16.059999    10.958109    9.53668    R2
Au    5.840000    3.371726    9.53668    R2
Au    13.139999    16.015697    9.53668    R2
Au    20.440001    3.371726    9.53668    R2
Au    27.740000    16.015697    9.53668    R2
Au    14.600000    3.371726    9.53668    R2
Au    21.900000    16.015697    9.53668    R2
Au    10.220000    10.958109    9.53668    R2
Au    24.820000    10.958109    9.53668    R2
Au    18.980000    10.958109    9.53668    R2
Au    8.760000    3.371726    9.53668    R2
Au    16.059999    16.015697    9.53668    R2
Au    13.140000    10.958109    9.53668    R2
Au    4.380000    5.900520    9.53668    R2
Au    18.980000    5.900520    9.53668    R2
Au    13.140000    5.900520    9.53668    R2
Au    7.300000    5.900520    9.53668    R2
Au    21.900002    5.900520    9.53668    R2
Au    16.059999    5.900520    9.53668    R2
Au    10.220000    5.900520    9.53668    R2
Au    8.760001    1.685863    11.920850000000002    R2
Au    16.060001    14.329834    11.920850000000002    R2
Au    13.139999    9.272246    11.920850000000002    R2
Au    2.920000    1.685863    11.920850000000002    R2
Au    10.219999    14.329834    11.920850000000002    R2
Au    17.520000    1.685863    11.920850000000002    R2
Au    24.820000    14.329834    11.920850000000002    R2
Au    11.680000    1.685863    11.920850000000002    R2
Au    18.980000    14.329834    11.920850000000002    R2
Au    7.300000    9.272246    11.920850000000002    R2
Au    21.900000    9.272246    11.920850000000002    R2
Au    16.059999    9.272246    11.920850000000002    R2
Au    5.840000    1.685863    11.920850000000002    R2
Au    13.139999    14.329834    11.920850000000002    R2
Au    20.440001    1.685863    11.920850000000002    R2
Au    27.740000    14.329834    11.920850000000002    R2
Au    14.600000    1.685863    11.920850000000002    R2
Au    21.900000    14.329834    11.920850000000002    R2
Au    10.219999    9.272246    11.920850000000002    R2
Au    24.820000    9.272246    11.920850000000002    R2
Au    18.980000    9.272246    11.920850000000002    R2
Au    10.220001    4.214657    11.920850000000002    R2
Au    17.520000    16.858627    11.920850000000002    R2
Au    14.600000    11.801040    11.920850000000002    R2
Au    4.380000    4.214657    11.920850000000002    R2
Au    11.680000    16.858627    11.920850000000002    R2
Au    18.980000    4.214657    11.920850000000002    R2
Au    26.279999    16.858627    11.920850000000002    R2
Au    13.140000    4.214657    11.920850000000002    R2
Au    20.440001    16.858627    11.920850000000002    R2
Au    8.760000    11.801040    11.920850000000002    R2
Au    23.360001    11.801040    11.920850000000002    R2
Au    17.520000    11.801040    11.920850000000002    R2
Au    7.300000    4.214657    11.920850000000002    R2
Au    14.600000    16.858627    11.920850000000002    R2
Au    21.900002    4.214657    11.920850000000002    R2
Au    29.200001    16.858627    11.920850000000002    R2
Au    16.059999    4.214657    11.920850000000002    R2
Au    23.359999    16.858627    11.920850000000002    R2
Au    11.680000    11.801040    11.920850000000002    R2
Au    26.280001    11.801040    11.920850000000002    R2
Au    20.440001    11.801040    11.920850000000002    R2
Au    11.680000    6.743451    11.920850000000002    R2
Au    5.840000    6.743451    11.920850000000002    R2
Au    20.440001    6.743451    11.920850000000002    R2
Au    14.600000    6.743451    11.920850000000002    R2
Au    8.760000    6.743451    11.920850000000002    R2
Au    23.360001    6.743451    11.920850000000002    R2
Au    17.520000    6.743451    11.920850000000002    R2
Au    0.000000    0.000000    14.30502    R3
Au    7.300000    12.643970    14.30502    R3
Au    14.600000    0.000000    14.30502    R3
Au    21.900000    12.643970    14.30502    R3
Au    8.760000    0.000000    14.30502    R3
Au    16.059999    12.643970    14.30502    R3
Au    4.380000    7.586382    14.30502    R3
Au    18.980000    7.586382    14.30502    R3
Au    13.139999    7.586382    14.30502    R3
Au    2.920000    0.000000    14.30502    R3
Au    10.219999    12.643970    14.30502    R3
Au    17.520000    0.000000    14.30502    R3
Au    24.820000    12.643970    14.30502    R3
Au    11.680000    0.000000    14.30502    R3
Au    18.980000    12.643970    14.30502    R3
Au    7.300000    7.586382    14.30502    R3
Au    21.900002    7.586382    14.30502    R3
Au    16.059999    7.586382    14.30502    R3
Au    5.840000    0.000000    14.30502    R3
Au    13.139999    12.643970    14.30502    R3
Au    10.220000    7.586382    14.30502    R3
Au    1.460000    2.528794    14.30502    R3
Au    8.759999    15.172765    14.30502    R3
Au    16.059999    2.528794    14.30502    R3
Au    23.359999    15.172765    14.30502    R3
Au    10.220000    2.528794    14.30502    R3
Au    17.520000    15.172765    14.30502    R3
Au    5.840000    10.115176    14.30502    R3
Au    20.440001    10.115176    14.30502    R3
Au    14.600000    10.115176    14.30502    R3
Au    4.380000    2.528794    14.30502    R3
Au    11.680000    15.172765    14.30502    R3
Au    18.980000    2.528794    14.30502    R3
Au    26.279999    15.172765    14.30502    R3
Au    13.140000    2.528794    14.30502    R3
Au    20.440001    15.172765    14.30502    R3
Au    8.760000    10.115176    14.30502    R3
Au    23.360001    10.115176    14.30502    R3
Au    17.520000    10.115176    14.30502    R3
Au    7.300000    2.528794    14.30502    R3
Au    14.600000    15.172765    14.30502    R3
Au    11.680000    10.115176    14.30502    R3
Au    2.920000    5.057588    14.30502    R3
Au    17.520000    5.057588    14.30502    R3
Au    11.680000    5.057588    14.30502    R3
Au    5.840000    5.057588    14.30502    R3
Au    20.440001    5.057588    14.30502    R3
Au    14.600000    5.057588    14.30502    R3
Au    8.760000    5.057588    14.30502    R3
Au    1.460000    0.842931    16.68919    R3
Au    8.760000    13.486901    16.68919    R3
Au    16.060001    0.842931    16.68919    R3
Au    23.360001    13.486901    16.68919    R3
Au    10.220000    0.842931    16.68919    R3
Au    17.520000    13.486901    16.68919    R3
Au    5.840000    8.429314    16.68919    R3
Au    20.440001    8.429314    16.68919    R3
Au    14.600000    8.429314    16.68919    R3
Au    4.380000    0.842931    16.68919    R3
Au    11.680000    13.486901    16.68919    R3
Au    18.980000    0.842931    16.68919    R3
Au    26.279999    13.486901    16.68919    R3
Au    13.140001    0.842931    16.68919    R3
Au    20.440001    13.486901    16.68919    R3
Au    8.760000    8.429314    16.68919    R3
Au    23.360001    8.429314    16.68919    R3
Au    17.520000    8.429314    16.68919    R3
Au    7.300000    0.842931    16.68919    R3
Au    14.600000    13.486901    16.68919    R3
Au    11.680000    8.429314    16.68919    R3
Au    2.920000    3.371726    16.68919    R3
Au    10.219999    16.015697    16.68919    R3
Au    17.520000    3.371726    16.68919    R3
Au    24.820000    16.015697    16.68919    R3
Au    11.680000    3.371726    16.68919    R3
Au    18.980000    16.015697    16.68919    R3
Au    7.300000    10.958109    16.68919    R3
Au    21.900002    10.958109    16.68919    R3
Au    16.059999    10.958109    16.68919    R3
Au    5.840000    3.371726    16.68919    R3
Au    13.139999    16.015697    16.68919    R3
Au    20.440001    3.371726    16.68919    R3
Au    27.740000    16.015697    16.68919    R3
Au    14.600000    3.371726    16.68919    R3
Au    21.900000    16.015697    16.68919    R3
Au    10.220000    10.958109    16.68919    R3
Au    24.820000    10.958109    16.68919    R3
Au    18.980000    10.958109    16.68919    R3
Au    8.760000    3.371726    16.68919    R3
Au    16.059999    16.015697    16.68919    R3
Au    13.140000    10.958109    16.68919    R3
Au    4.380000    5.900520    16.68919    R3
Au    18.980000    5.900520    16.68919    R3
Au    13.140000    5.900520    16.68919    R3
Au    7.300000    5.900520    16.68919    R3
Au    21.900002    5.900520    16.68919    R3
Au    16.059999    5.900520    16.68919    R3
Au    10.220000    5.900520    16.68919    R3
Au    8.760001    1.685863    19.07336    R3
Au    16.060001    14.329834    19.07336    R3
Au    13.139999    9.272246    19.07336    R3
Au    2.920000    1.685863    19.07336    R3
Au    10.219999    14.329834    19.07336    R3
Au    17.520000    1.685863    19.07336    R3
Au    24.820000    14.329834    19.07336    R3
Au    11.680000    1.685863    19.07336    R3
Au    18.980000    14.329834    19.07336    R3
Au    7.300000    9.272246    19.07336    R3
Au    21.900000    9.272246    19.07336    R3
Au    16.059999    9.272246    19.07336    R3
Au    5.840000    1.685863    19.07336    R3
Au    13.139999    14.329834    19.07336    R3
Au    20.440001    1.685863    19.07336    R3
Au    27.740000    14.329834    19.07336    R3
Au    14.600000    1.685863    19.07336    R3
Au    21.900000    14.329834    19.07336    R3
Au    10.219999    9.272246    19.07336    R3
Au    24.820000    9.272246    19.07336    R3
Au    18.980000    9.272246    19.07336    R3
Au    10.220001    4.214657    19.07336    R3
Au    17.520000    16.858627    19.07336    R3
Au    14.600000    11.801040    19.07336    R3
Au    4.380000    4.214657    19.07336    R3
Au    11.680000    16.858627    19.07336    R3
Au    18.980000    4.214657    19.07336    R3
Au    26.279999    16.858627    19.07336    R3
Au    13.140000    4.214657    19.07336    R3
Au    20.440001    16.858627    19.07336    R3
Au    8.760000    11.801040    19.07336    R3
Au    23.360001    11.801040    19.07336    R3
Au    17.520000    11.801040    19.07336    R3
Au    7.300000    4.214657    19.07336    R3
Au    14.600000    16.858627    19.07336    R3
Au    21.900002    4.214657    19.07336    R3
Au    29.200001    16.858627    19.07336    R3
Au    16.059999    4.214657    19.07336    R3
Au    23.359999    16.858627    19.07336    R3
Au    11.680000    11.801040    19.07336    R3
Au    26.280001    11.801040    19.07336    R3
Au    20.440001    11.801040    19.07336    R3
Au    11.680000    6.743451    19.07336    R3
Au    5.840000    6.743451    19.07336    R3
Au    20.440001    6.743451    19.07336    R3
Au    14.600000    6.743451    19.07336    R3
Au    8.760000    6.743451    19.07336    R3
Au    23.360001    6.743451    19.07336    R3
Au    17.520000    6.743451    19.07336    R3
