155

Au     0.000000     0.000000     0.000000     L3
Au     8.760000     0.000000     0.000000     L3
Au     4.380000     7.586382     0.000000     L3
Au     13.140000     7.586382     0.000000     L3
Au     2.920000     0.000000     0.000000     L3
Au     11.680000     0.000000     0.000000     L3
Au     7.300000     7.586382     0.000000     L3
Au     16.059999     7.586382     0.000000     L3
Au     5.840000     0.000000     0.000000     L3
Au     10.220000     7.586382     0.000000     L3
Au     1.460000     2.528794     0.000000     L3
Au     10.220000     2.528794     0.000000     L3
Au     5.840000     10.115176     0.000000     L3
Au     14.600000     10.115176     0.000000     L3
Au     4.380000     2.528794     0.000000     L3
Au     13.140000     2.528794     0.000000     L3
Au     8.760000     10.115176     0.000000     L3
Au     17.520000     10.115176     0.000000     L3
Au     7.300000     2.528794     0.000000     L3
Au     11.680000     10.115176     0.000000     L3
Au     2.920000     5.057588     0.000000     L3
Au     11.680000     5.057588     0.000000     L3
Au     5.840000     5.057588     0.000000     L3
Au     14.600000     5.057588     0.000000     L3
Au     8.760000     5.057588     0.000000     L3
Au     1.460000     0.842931     2.384170     L3
Au     10.220000     0.842931     2.384170     L3
Au     5.840000     8.429314     2.384170     L3
Au     14.600000     8.429314     2.384170     L3
Au     4.380000     0.842931     2.384170     L3
Au     13.140000     0.842931     2.384170     L3
Au     8.760000     8.429314     2.384170     L3
Au     17.520000     8.429314     2.384170     L3
Au     7.300000     0.842931     2.384170     L3
Au     11.680000     8.429314     2.384170     L3
Au     2.920000     3.371726     2.384170     L3
Au     11.680000     3.371726     2.384170     L3
Au     7.300000     10.958108     2.384170     L3
Au     16.059999     10.958108     2.384170     L3
Au     5.840000     3.371726     2.384170     L3
Au     14.600000     3.371726     2.384170     L3
Au     10.220000     10.958108     2.384170     L3
Au     18.980000     10.958108     2.384170     L3
Au     8.760000     3.371726     2.384170     L3
Au     13.140000     10.958108     2.384170     L3
Au     4.380000     5.900520     2.384170     L3
Au     13.140000     5.900520     2.384170     L3
Au     7.300000     5.900520     2.384170     L3
Au     16.059999     5.900520     2.384170     L3
Au     10.220000     5.900520     2.384170     L3
Au     8.760000     1.685863     4.768340     L3
Au     13.140000     9.272245     4.768340     L3
Au     2.920000     1.685863     4.768340     L3
Au     11.680000     1.685863     4.768340     L3
Au     7.300000     9.272245     4.768340     L3
Au     16.059999     9.272245     4.768340     L3
Au     5.840000     1.685863     4.768340     L3
Au     14.600000     1.685863     4.768340     L3
Au     10.220000     9.272245     4.768340     L3
Au     18.980000     9.272245     4.768340     L3
Au     10.220000     4.214657     4.768340     L3
Au     14.600000     11.801040     4.768340     L3
Au     4.380000     4.214657     4.768340     L3
Au     13.140000     4.214657     4.768340     L3
Au     8.760000     11.801040     4.768340     L3
Au     17.520000     11.801040     4.768340     L3
Au     7.300000     4.214657     4.768340     L3
Au     16.059999     4.214657     4.768340     L3
Au     11.680000     11.801040     4.768340     L3
Au     20.440001     11.801040     4.768340     L3
Au     11.680000     6.743451     4.768340     L3
Au     5.840000     6.743451     4.768340     L3
Au     14.600000     6.743451     4.768340     L3
Au     8.760000     6.743451     4.768340     L3
Au     17.520000     6.743451     4.768340     L3
C    10.748667322925094    5.5626794843278855    19.788972673525922    S
C    11.333860431611473    6.6463804455459385    19.06411204065894    S
C    11.596973426627894    6.537500116876183    17.70968560698784    S
C    11.302138839967014    5.353530187731325    16.999551301348454    S
C    10.458263465805404    4.367544099087429    19.061525147480022    S
C    10.728573387221527    4.275117457385493    17.707350627502684    S
C    9.517621785697573    6.045488742350159    10.921253009547936    S
H    12.04808124881886    7.3783921026788075    17.177907486675046    S
S    10.411928975643356    5.690108646473535    21.454775713278394    S
H    10.020817473585677    3.529294468582033    19.603806274206292    S
H    10.502309037547931    3.349285215466474    17.173633231713556    S
H    11.570168085438507    7.560353426419569    19.608793026389346    S
C    10.091627097362887    7.120963617569943    10.20938709261578    S
C    10.362753547816595    7.023090914334611    8.855729490735884    S
C    10.072869086643264    5.824938881049784    8.133039678862012    S
C    9.486394042529197    4.744500003642637    8.861730317399966    S
C    9.222419895161059    4.858957572256453    10.215498037916836    S
H    10.800426567709405    7.859179717970493    8.310270538071952    S
H    10.317652963464411    8.048901402314394    10.739481269715187    S
H    9.249972021311986    3.8284651546626858    8.320484074897735    S
H    8.770561164436238    4.020439577318797    10.75029863165878    S
S    10.411928976016386    5.690108646016421    6.468340000000001    S
C    11.534997224300373    5.264748956428836    15.519247788561064    S
C    9.285143579431114    6.139337428598454    12.401322625252652    S
C    10.518048419103145    5.659799965236369    13.204539050130043    S
C    10.30131910140616    5.743001360071132    14.716603811964625    S
H    10.75404488185194    4.622641601600499    12.91554523876328    S
H    11.392372376836677    6.265961663402997    12.916413980710342    S
H    9.427788966197593    5.135734929549427    15.004686411130724    S
H    10.064083155173464    6.779808349182209    15.005751456858512    S
H    12.404995645530866    5.8779880700556095    15.237054022234235    S
H    11.764238720107608    4.2254466209319945    15.236566246535446    S
H    9.058638986464267    7.180022747408804    12.681164889369613    S
H    8.413721635590225    5.528877637306001    12.685345707812594    S
