39

C          5.57189        5.76415        10.64398
N          5.58336        5.69456       11.53100
H          5.56166        5.82617        9.63599
  C        10.9361688239        4.7761038268       19.6396327113
  C        11.5356533411        5.5531234119       18.6313177190
  C        11.7415591654        5.0049514553       17.3684532841
  C        11.3773128073        3.6801244291       17.0748541958
  C        10.6423381068        3.4235869198       19.3876074303
  C        10.8628664375        2.8915853960       18.1191861998
  C         8.9510060553        3.6962651700       11.2632029407
  H        12.1778162484        5.6269107517       16.5841592202
  S        10.2667523640        5.6236209114       21.0396630176
  H        10.2068604202        2.8090460111       20.1760073829
  H        10.6043649472        1.8474871001       17.9308525394
  H        11.7983274740        6.5919502177       18.8312425276
  C         8.5626258531        5.0056636974       10.9343179711
  C         8.8031650522        5.5403670060        9.6710936173
  C         9.4607609654        4.7644695484        8.6997090586
  C         9.7780204073        3.4234159996        8.9836441540
  C         9.5231715491        2.9051535811       10.2511694369
  H         8.5247247902        6.5698280820        9.4458282763
  H         8.0834168646        5.6287876306       11.6921909633
  H        10.2597189439        2.8092164904        8.2224467840
  H         9.8022073820        1.8715669898       10.4662558478
  S        10.1823336481        5.5954990055        7.3150182266
  C        11.4562765752        3.1686590888       15.6577606619
  C         8.8442693251        3.2035494021       12.6856044493
  C        10.2116867532        3.2331602460       13.4114828632
  C        10.0859092969        3.2313874830       14.9381968396
  H        10.8248024283        2.3815890154       13.0727477589
  H        10.7591149257        4.1401214052       13.1052995961
  H         9.4551882425        2.3919712752       15.2751014025
  H         9.5602342722        4.1492906002       15.2497166525
  H        12.1825504527        3.7793182837       15.0976532378
  H        11.8334357779        2.1338274114       15.6387526766
  H         8.1327986381        3.8415579744       13.2337160106
  H         8.4363851261        2.1803525696       12.7137487408
H         10.73912        7.04944       20.95603
H         10.10111        4.70893        6.58799

