39

C       -5.623156   -2.044974    1.030961
N       -6.045611   -3.134616    0.990518
H       -5.223667   -1.038884    1.066406
C        5.968494    0.380360    0.305420
C        5.163293    1.380261   -0.270104
C        3.902326    1.057343   -0.790795
C        3.405953   -0.257925   -0.757925
C        5.477345   -0.938735    0.364603
C        4.218342   -1.243113   -0.161397
C       -2.528407   -0.593266    0.004341
H        3.299402    1.849900   -1.249685
S        7.610182    0.687400    0.947637
H        6.088068   -1.731675    0.809128
H        3.864244   -2.280349   -0.122749
H        5.522555    2.413528   -0.327781
C       -2.791122    0.202407    1.135285
C       -3.823431    1.153573    1.144301
C       -4.627475    1.341194    0.001345
C       -4.358019    0.571242   -1.148748
C       -3.327844   -0.375354   -1.137287
H       -4.006972    1.746033    2.046935
H       -2.191777    0.062336    2.042186
H       -4.967123    0.695163   -2.050529
H       -3.160438   -0.981437   -2.035277
S       -5.963985    2.524898    0.088754
C        2.064398   -0.630058   -1.357922
C       -1.495095   -1.704167    0.015265
C       -0.290234   -1.522619   -0.942810
C        0.904743   -0.764726   -0.342732
H        0.064088   -2.524338   -1.252522
H       -0.627647   -1.021182   -1.870670
H        1.265225   -1.313427    0.548931
H        0.596708    0.236746    0.013279
H        1.783400    0.106240   -2.133776
H        2.174018   -1.599774   -1.882208
H       -1.122943   -1.852267    1.046036
H       -2.014139   -2.643385   -0.254301
H        7.617125    2.026016    0.715151
H       -6.420643    2.327630   -1.175250
