39

C       -1.972176    1.728572   -1.434517
N       -0.900776    1.976012   -1.832680
H       -2.957337    1.485682   -1.056805
C       -5.128182    0.393766    0.295842
C       -4.262149    0.779460    1.338215
C       -3.043627    0.109998    1.529376
C       -2.645485   -0.953346    0.698262
C       -4.732846   -0.656268   -0.560166
C       -3.514862   -1.312663   -0.352843
C        3.133408   -1.016297   -0.617358
H       -2.392905    0.420714    2.354847
S       -6.728849    1.140895    0.013400
H       -5.389938   -0.973489   -1.376877
H       -3.237071   -2.136208   -1.021068
H       -4.542711    1.592455    2.016660
C        3.058237    0.374314   -0.828892
C        4.085468    1.231717   -0.411218
C        5.227065    0.714992    0.231742
C        5.305005   -0.669524    0.470864
C        4.270569   -1.511752    0.049900
H        4.003010    2.306864   -0.602184
H        2.188122    0.799658   -1.343585
H        6.182413   -1.096528    0.968972
H        4.361359   -2.590390    0.226894
S        6.539856    1.845766    0.683504
C       -1.340808   -1.696599    0.903252
C        2.065996   -1.977304   -1.104145
C        0.939275   -2.303706   -0.089511
C       -0.215463   -1.291615   -0.077881
H        0.520702   -3.297562   -0.342761
H        1.374309   -2.402524    0.923736
H       -0.635157   -1.220163   -1.099899
H        0.151290   -0.278387    0.169419
H       -0.990523   -1.559606    1.942883
H       -1.532522   -2.781045    0.783031
H        1.607041   -1.587379   -2.032310
H        2.562690   -2.924893   -1.382848
H       -6.656392    2.042456    1.027232
H        7.336386    0.919221    1.277408
