37
XYZ 
C  8.728410    5.444700  -13.504093
 H     9.699416    4.991804  -13.035713
 N     7.828770    5.864324  -13.937795
 C     3.037654    9.711097   -4.090214
 C     3.637767   10.678119   -4.909332
 C     3.646002   10.512409   -6.300828
 C     3.056921    9.382313   -6.899193
 C     2.444738    8.581444   -4.672264
 C      2.455948    8.421073   -6.064235
 C     5.759276    7.210107  -12.294296
 H     4.112939   11.273652   -6.937533
 H     3.023254    9.840697   -3.007345
 H     1.967367    7.824777   -4.040389
 H     1.987114    7.537898   -6.514937
 H     4.096877   11.567134   -4.463734
 C     6.341169    8.182049  -13.132479
 C     6.344191    8.024284  -14.525607
 C     5.765125    6.887537  -15.108147
 C     5.183594    5.908372  -14.285951
 C     5.183031    6.071847  -12.892973
 H     6.802533    8.782614  -15.165117
 H     6.802188    9.069795  -12.684002
 H     4.734583    5.013690  -14.729995
 H     4.733650    5.301669  -12.255223
 H     5.768698    6.762850  -16.195873
 C     3.116836    9.178005   -8.397883
 C     5.705736    7.410909  -10.795748
 C     4.445889    8.186302  -10.354213
 C     4.375584    8.400901   -8.837844
 H     3.546080    7.639660  -10.697854
 H     4.423558    9.164699  -10.872733
 H     4.396177    7.422863   -8.319010
 H     5.275659    8.946513   -8.493819
 H     3.100898   10.157840   -8.911884
 H     2.218134    8.629556   -8.738688
 H     6.604926    7.959653  -10.458349
 H     5.725271    6.430249  -10.284647
